(fuelCellFoam | tee log.srun);
/*---------------------------------------------------------------------------*\
  =========                 |
  \\      /  F ield         | OpenFOAM: The Open Source CFD Toolbox
   \\    /   O peration     | Website:  https://openfoam.org
    \\  /    A nd           | Version:  6
     \\/     M anipulation  |
\*---------------------------------------------------------------------------*/
Build  : 6-fa1285188035
Exec   : fuelCellFoam
Date   : Nov 01 2019
Time   : 00:17:16
Host   : "shubham"
PID    : 1187
I/O    : uncollated
Case   : /home/srohal/openfuelcell/run/coFlow
nProcs : 1
sigFpe : Enabling floating point exception trapping (FOAM_SIGFPE).
fileModificationChecking : Monitoring run-time modified files using timeStampMaster (fileModificationSkew 10)
allowSystemOperations : Allowing user-supplied system call operations

// * * * * * * * * * * * * * * * * * * * * * * * * * * * * * * * * * * * * * //
Create time

Create mesh for time = 0

Reading cell properties

galvanostatic run
    V     = V [1 2 -3 0 0 -1 0] 0.8
    ibar0 = ibar0 [0 -2 0 0 0 1 0] 5000
    Rhat  = Rhat [1 4 -3 0 0 -2 0] 1e-05
    Rhat0  = Rhat0 [1 4 -3 0 0 -2 0] 1e-05
    Tinit = Tinit [0 0 0 1 0 0 0] 1000

    anodeName              = fuel_to_electrolyte
    fuelInletName          = fuelInlet
    fuelOutletName         = fuelOutlet
    cathodeName            = air_to_electrolyte
    airInletName           = airInlet
    airOutletName          = airOutlet
    electrolyteAnodeName   = electrolyte_to_fuel
    electrolyteCathodeName = electrolyte_to_air

Reading cell field T

Reading air properties

    muA   = mu [1 -1 -1 0 0 0 0] 4.336e-05
    rhoA  = rho [1 -3 0 0 0 0 0] 0.3516
    CpA   = Cp [0 2 -2 -1 0 0 0] 1149.3
    kA    = k [1 1 -3 -1 0 0 0] 0.0692
    dHydAir  = dHyd [0 1 0 0 0 0 0] 0.0017143

Creating air field p
Creating air field rho
Creating air field mu
Creating air field nu
Creating air field U
Creating air face flux field phi
Creating air field Tair
Creating air field cp
Creating air field k
Creating air porous zones
Porosity region cathode:
    selecting model: DarcyForchheimer
    creating porous zone: cathode
Porosity region cfl:
    selecting model: DarcyForchheimer
    creating porous zone: cfl
    number of porous zones = 2
    zone 1(4) cathode : size = 100000; porosity = 0.5
    zone 1(5) cfl : size = 60000; porosity = 0.25


Reading air sofcSpeciesProperties
              name    MW[kg/kmol]     ne      rSign   hForm       sForm   
airSpecies[0] O2      31.9988         4       -1      0           205.152 
airSpecies[1] N2      28.0134         0       0       0           191.609 

airInertSpecie = N2

CpCoeffs(O2) 34.85 -57.975 203.68 -300.37 231.72 -91.821 14.776
CpCoeffs(N2) 29.027 4.8987 -38.04 105.17 -113.56 55.554 -10.35

muCoeffs(O2) -1.6918 889.75 -892.79 905.98 -598.36 221.64 -34.754
muCoeffs(N2) 1.2719 771.45 -809.2 832.47 -553.93 206.15 -32.43

kCoeffs(O2) -0.1857 11.118 -7.3734 6.713 -4.1797 1.491 -0.2278
kCoeffs(N2) -0.3216 14.81 -25.473 38.837 -32.133 13.493 -2.2741

ToddYoung checks
O2
    Cp(1473) = 36.46984
    mu(1473) = 632.3691
    k(1473)  = 9.983227
N2
    Cp(1473) = 34.73966
    mu(1473) = 532.9934
    k(1473)  = 9.412344

Selecting activation overpotential model...butlerVolmer
Reading electrolyte properties

    rhoElectrolyte  = rho [1 -3 0 0 0 0 0] 6000
    CpElectrolyte   = Cp [0 2 -2 -1 0 0 0] 550
    kElectrolyte    = k [1 1 -3 -1 0 0 0] 2.4

creating current density field

creating voltage field

creating Nernst potential field

Reading fuel properties

    muF       = mu [1 -1 -1 0 0 0 0] 2.41e-05
    rhoF      = rho [1 -3 0 0 0 0 0] 0.0305
    CpF       = Cp [0 2 -2 -1 0 0 0] 12200
    kF        = k [1 1 -3 -1 0 0 0] 0.432
    dHydFuel  = dHyd [0 1 0 0 0 0 0] 0.0017143

Reading fuel field p

Reading fuel field rho

Creating fuel field mu

Creating fuel field nu
Reading fuel field U

Reading/calculating fuel face flux field phi

Reading fuel field cp

Creating fuel field k
Reading fuel porous zones
Porosity region anode:
    selecting model: DarcyForchheimer
    creating porous zone: anode
Porosity region afl:
    selecting model: DarcyForchheimer
    creating porous zone: afl
    number of porous zones = 2
    zone 1(4) anode : size = 200000; porosity = 0.5
    zone 1(5) afl : size = 60000; porosity = 0.25


Reading fuel sofcSpeciesProperties
               name    MW[kg/kmol]     ne      rSign   hForm       sForm   
fuelSpecies[0] H2      2.01594         2       -1      0           130.68  
fuelSpecies[1] H2O     18.01534        2       1       -241834.9   188.835 

fuelInertSpecie = H2O

CpCoeffs(H2) 21.157 56.036 -150.55 199.29 -136.15 46.903 -6.4725
CpCoeffs(H2O) 37.373 -41.205 146.01 -217.08 181.54 -79.409 14.015

muCoeffs(H2) 15.553 299.78 -244.34 249.41 -167.51 62.966 -9.9892
muCoeffs(H2O) -6.7541 244.93 419.5 -522.38 348.12 -126.96 19.591

kCoeffs(H2) 1.504 62.892 -47.19 47.763 -31.939 11.972 -1.8954
kCoeffs(H2O) 2.0103 -7.9139 35.922 -41.39 35.993 -18.974 4.1531

ToddYoung checks
H2
    Cp(1473) = 32.15625
    mu(1473) = 270.1053
    k(1473)  = 57.7045
H2O
    Cp(1473) = 46.82644
    mu(1473) = 553.2606
    k(1473)  = 16.30336

Selecting activation overpotential model...butlerVolmer
Reading interconnect properties

  interconnect
    rhointerconnect = rho [1 -3 0 0 0 0 0] 7900
    Cpinterconnect  = Cp [0 2 -2 -1 0 0 0] 660
    kinterconnect   = k [1 1 -3 -1 0 0 0] 24


Reading rxnProperties
rxnSpCoef contents: 
4
(
O2
H2
e
H2O
)

rxnSpecies stoichiometric coefficients: 
stoichCoeff O2 = 0.5
stoichCoeff H2 = 1
stoichCoeff H2O = 1
stoichCoeff e = 2

Setting special patch IDs

    electrolyte thickness (calculated) hE = hE [0 1 0 0 0 0 0] 8e-06


Creating air diffusivity models
zone 3 air
Selecting diffusivity model binaryFSG
cathodeZone 0, airZone 4: cathode
size = 100000
Selecting diffusivity model fixedDiffusivity
cathodeZone 1, airZone 5: cfl
size = 60000
Selecting diffusivity model fixedDiffusivity

Creating fuel diffusivity models
zone 1 fuel
Selecting diffusivity model binaryFSG
anodeZone 0, fuelZone 4: anode
size = 200000
Selecting diffusivity model fixedDiffusivity
anodeZone 1, fuelZone 5: afl
size = 60000
Selecting diffusivity model fixedDiffusivity

Starting time loop

Time = 1

Tair min mean max  = 1000    1000    1000
Tfuel min mean max = 1000    1000    1000
min,mean,max(rhoAir): 0.3515907   0.3515907   0.3515907
min,mean,max(rhoFuel): 0.03046576   0.03046576   0.03046576
min,mean,max(muAir): 4.330221e-05   4.330221e-05   4.330221e-05
min,mean,max(muFuel): 2.429684e-05   2.429684e-05   2.429684e-05
min,mean,max(nuAir): 0.0001231609   0.0001231609   0.0001231609
min,mean,max(nuFuel): 0.0007975131   0.0007975131   0.0007975131
min,mean,max(kAir): 0.07035484   0.07035484   0.07035484
min,mean,max(kFuel): 0.3584587   0.3584587   0.3584587

Solving fuel flow
DILUPBiCG:  Solving for Ux, Initial residual = 1, Final residual = 1.72092e-10, No Iterations 6
DILUPBiCG:  Solving for Uy, Initial residual = 0.9999967, Final residual = 5.819543e-10, No Iterations 6
DILUPBiCG:  Solving for Uz, Initial residual = 0.9999997, Final residual = 1.946589e-15, No Iterations 2
DICPCG:  Solving for p, Initial residual = 1, Final residual = 8.731534e-10, No Iterations 459
time step continuity errors : sum local = 2.881423e-08, global = -4.021735e-11
DICPCG:  Solving for p, Initial residual = 0.009399504, Final residual = 7.829528e-10, No Iterations 314
time step continuity errors : sum local = 2.538363e-08, global = 2.820467e-11

Solving air flow
DILUPBiCG:  Solving for Ux, Initial residual = 1, Final residual = 1.181097e-10, No Iterations 6
DILUPBiCG:  Solving for Uy, Initial residual = 0.9999968, Final residual = 5.515569e-10, No Iterations 6
DILUPBiCG:  Solving for Uz, Initial residual = 0.9999997, Final residual = 1.402639e-10, No Iterations 6
DICPCG:  Solving for p, Initial residual = 1, Final residual = 7.976287e-10, No Iterations 491
time step continuity errors : sum local = 3.223099e-07, global = -1.542315e-09
DICPCG:  Solving for p, Initial residual = 0.008648869, Final residual = 9.98977e-10, No Iterations 336
time step continuity errors : sum local = 3.262548e-07, global = -1.343083e-09
ReAir  = 13.91956
ReFuel = 2.151973

airSpecies O2

airDiffModels[0]
  zone size = 260000
diffusivityModels::binaryFSG:
    diffusing speciesA molWt diffVol: O2 31.9988 16.3
   background speciesB molWt diffVol: N2 28.0134 18.5

airDiffModels[1]
  zone size = 100000
diffusivityModels::fixedDiffusivity: 
   diff0 = diff0 [0 2 -1 0 0 0 0] 2.9864e-05

airDiffModels[2]
  zone size = 60000
diffusivityModels::fixedDiffusivity: 
   diff0 = diff0 [0 2 -1 0 0 0 0] 1.054e-05

diffSpAir[O2]
    primitiveFieldRef min mean max = 1.054e-05  7.981246e-05  0.0001714589

fuelSpecies H2

fuelDiffModels[0]
  zone size = 360000
diffusivityModels::binaryFSG:
    diffusing speciesA molWt diffVol: H2 2.01594 6.12
   background speciesB molWt diffVol: H2O 18.01534 13.1

fuelDiffModels[1]
  zone size = 200000
diffusivityModels::fixedDiffusivity: 
   diff0 = diff0 [0 2 -1 0 0 0 0] 0.00013124

fuelDiffModels[2]
  zone size = 60000
diffusivityModels::fixedDiffusivity: 
   diff0 = diff0 [0 2 -1 0 0 0 0] 4.6321e-05

diffSpFuel[H2]
    primitiveFieldRef() min mean max = 4.6321e-05  0.0002898485  0.0007535109

Solving fuel scalars
 Yfuel[i].name() = YH2
DILUPBiCG:  Solving for YH2, Initial residual = 0.9999582, Final residual = 5.260932e-10, No Iterations 241
 Yfuel[i].name() = YH2O
inertIndex = 1
min,mean,max(YH2): 0.782 , 0.782 , 0.782
min,mean,max(YH2O): 0.218 , 0.218 , 0.218

Solving air scalars
 Yair[i].name() = YO2
DILUPBiCG:  Solving for YO2, Initial residual = 0.9999921, Final residual = 4.102224e-10, No Iterations 138
 Yair[i].name() = YN2
inertIndex = 1
min,mean,max(YO2): 0.233 , 0.233 , 0.233
min,mean,max(YN2): 0.767 , 0.767 , 0.767

Solving electrochemistry
min,max(anodeT): 1000 , 1000
min,max(cathodeT): 1000 , 1000
min,mean,max(XO2): 0.2100766 , 0.2100766 , 0.2100766
min,mean,max(XH2): 0.9697487 , 0.9697487 , 0.9697487
min,mean,max(XH2O): 0.0302513 , 0.0302513 , 0.0302513
H2  1
   mean H(T) = 20673.31
   mean S(T) = 166.21
H2O  1
   mean H(T) = -215838.2
   mean S(T) = 232.7318
O2  0.5
   mean H(T) = 11348.03
   mean S(T) = 121.7829
 mean deltaHrxn = -247859.5
 mean anodeT    = 1000
 mean deltaSrxn = -55.2611
 mean TdeltaS   = -55261.1
 mean deltaG    = -192598.4

min,mean,max Nernst = 1.11386  1.11386  1.11386
min,mean,max(i): 5312.291 , 5312.291 , 5312.291
min,mean,max(iNew): 8122.906 , 8122.906 , 8122.906
min,mean,max(iOld): 5000 , 5000 , 5000
min,mean,max calBV(etaAn) = 0.08633143  0.08633718  0.08634293
min,mean,max calBV(etaCa) = 0.03671139  0.03671673  0.03672207

Solve current

layer 1

sumVolume8e-08
min,max(Nernst): 1.11386 , 1.11386
ibar0 = 5000    ibar = 5312.291    V = 0.8031229

stack Voltage =0.8031229
min,mean,max(current): 5312.291 , 5312.291 , 5312.291

Calculating electrochemical heating
min,mean,max(electrochemicalHeating): 3.196129e+08  3.196129e+08  3.196129e+08

air species electrochemical fluxes and YEqn BCs
s species[] isFlux[] mflux[] = 0 O2 true -8.808951
s species[] isFlux[] mflux[] = 1 N2 false 0


air mass rates: 
   inlet: 2.637e-05   outlet: 1.128953e-05   cathode: 4.404475e-06
O2 mass rates: 
   inlet = 6.14421e-06   outlet = 2.630461e-06   chem = 4.404475e-06
      utilization by chemRate = 0.7168498
      utilization by outRate  = 0.5718798

fuel species electrochemical fluxes and YEqn BCs
s species[] isFlux[] mflux[] = 0 H2 true -1.109936
s species[] isFlux[] mflux[] = 1 H2O true 9.918887


fuel mass rates: 
   inlet: 2.2875e-06   outlet: 9.798187e-07   anode: 4.404475e-06
H2 mass rates: 
   inlet = 1.788825e-06   outlet = 7.662183e-07   chem = 5.549682e-07
      utilization by chemRate = 0.3102417
      utilization by outRate  = 0.5716639


min mean max rhoCpF(air) = 404.0282 404.0282 404.0282
min mean max rhoCpF(fuel) = 372.2658 372.2658 372.2658

ELECTROLYTE FLUX MAPPING ACTIVATED
time step continuity errors : sum local = 3.382945e-08, global = -1.186314e-10

Solving energy
DILUPBiCG:  Solving for T, Initial residual = 1, Final residual = 9.837118e-11, No Iterations 934
T min mean max     = 1161.369    1419.256    1440.084

 sum TcellEqn.source() =   25.56904

ExecutionTime = 124.61 s


Time = 2

Tair min mean max  = 1161.369    1418.739    1440.083
Tfuel min mean max = 1310.481    1419.473    1440.08
min,mean,max(rhoAir): 0.2441483   0.2480821   0.3032163
min,mean,max(rhoFuel): 0.02115578   0.02147578   0.02326818
min,mean,max(muAir): 4.773917e-05   5.429929e-05   5.482096e-05
min,mean,max(muFuel): 3.023322e-05   3.222224e-05   3.259392e-05
min,mean,max(nuAir): 0.0001574426   0.0002189718   0.0002245397
min,mean,max(nuFuel): 0.001299337   0.001500851   0.001540663
min,mean,max(kAir): 0.07933848   0.09276495   0.0938332
min,mean,max(kFuel): 0.4438658   0.472728   0.4781508

Solving fuel flow
DILUPBiCG:  Solving for Ux, Initial residual = 3.564044e-05, Final residual = 2.037213e-10, No Iterations 3
DILUPBiCG:  Solving for Uy, Initial residual = 0.2087815, Final residual = 7.784488e-10, No Iterations 5
DILUPBiCG:  Solving for Uz, Initial residual = 0.07098147, Final residual = 4.973695e-10, No Iterations 3
DICPCG:  Solving for p, Initial residual = 0.07006997, Final residual = 9.188129e-10, No Iterations 527
time step continuity errors : sum local = 1.696304e-08, global = 5.639411e-12
DICPCG:  Solving for p, Initial residual = 0.004323635, Final residual = 9.397095e-10, No Iterations 451
time step continuity errors : sum local = 5.015373e-08, global = 2.171784e-10

Solving air flow
DILUPBiCG:  Solving for Ux, Initial residual = 6.1812e-05, Final residual = 6.337413e-11, No Iterations 4
DILUPBiCG:  Solving for Uy, Initial residual = 0.2238802, Final residual = 1.23678e-10, No Iterations 6
DILUPBiCG:  Solving for Uz, Initial residual = 0.01161712, Final residual = 8.188093e-11, No Iterations 5
DICPCG:  Solving for p, Initial residual = 0.03279737, Final residual = 9.170763e-10, No Iterations 522
time step continuity errors : sum local = 1.930318e-07, global = 1.506908e-10
DICPCG:  Solving for p, Initial residual = 0.02636489, Final residual = 8.902383e-10, No Iterations 517
time step continuity errors : sum local = 1.896968e-07, global = 2.059182e-10
ReAir  = 12.09313
ReFuel = 1.701547

airSpecies O2

airDiffModels[0]
  zone size = 260000
diffusivityModels::binaryFSG:
    diffusing speciesA molWt diffVol: O2 31.9988 16.3
   background speciesB molWt diffVol: N2 28.0134 18.5

airDiffModels[1]
  zone size = 100000
diffusivityModels::fixedDiffusivity: 
   diff0 = diff0 [0 2 -1 0 0 0 0] 2.9864e-05

airDiffModels[2]
  zone size = 60000
diffusivityModels::fixedDiffusivity: 
   diff0 = diff0 [0 2 -1 0 0 0 0] 1.054e-05

diffSpAir[O2]
    primitiveFieldRef min mean max = 1.054e-05  0.0001351238  0.0003245182

fuelSpecies H2

fuelDiffModels[0]
  zone size = 360000
diffusivityModels::binaryFSG:
    diffusing speciesA molWt diffVol: H2 2.01594 6.12
   background speciesB molWt diffVol: H2O 18.01534 13.1

fuelDiffModels[1]
  zone size = 200000
diffusivityModels::fixedDiffusivity: 
   diff0 = diff0 [0 2 -1 0 0 0 0] 0.00013124

fuelDiffModels[2]
  zone size = 60000
diffusivityModels::fixedDiffusivity: 
   diff0 = diff0 [0 2 -1 0 0 0 0] 4.6321e-05

diffSpFuel[H2]
    primitiveFieldRef() min mean max = 4.6321e-05  0.0004660917  0.001425051

Solving fuel scalars
 Yfuel[i].name() = YH2
DILUPBiCG:  Solving for YH2, Initial residual = 0.9999999, Final residual = 4.940176e-10, No Iterations 215
 Yfuel[i].name() = YH2O
inertIndex = 1
min,mean,max(YH2): 2.220446e-16 , 0.1788604 , 0.7560244
min,mean,max(YH2O): 0.2439756 , 0.8211396 , 1

Solving air scalars
 Yair[i].name() = YO2
DILUPBiCG:  Solving for YO2, Initial residual = 0.9999999, Final residual = 9.596546e-10, No Iterations 184
 Yair[i].name() = YN2
inertIndex = 1
min,mean,max(YO2): 0.04556902 , 0.1593454 , 0.2326478
min,mean,max(YN2): 0.7673522 , 0.8406546 , 0.954431

Solving electrochemistry
min,max(anodeT): 1357.035 , 1440.083
min,max(cathodeT): 1356.991 , 1440.084
min,mean,max(XO2): 0.03987903 , 0.1226291 , 0.1973597
min,mean,max(XH2): 1.98429e-15 , 0.3349771 , 0.926835
min,mean,max(XH2O): 0.07316505 , 0.6650229 , 1
min,mean,max Nernst = -1.329399  -0.2119447  0.9951608
min,mean,max(i): 2.220446e-16 , 1461.166 , 4068.538
min,mean,max(iNew): -197425.5 , -99299.35 , 5395.794
min,mean,max(iOld): 3688.91 , 3744.491 , 3921.065
min,mean,max calBV(etaAn) = -1.11e-30  0.0004682449  0.002480643
min,mean,max calBV(etaCa) = -1.11e-30  0.0001034919  0.00039912

Solve current

layer 1

sumVolume8e-08
min,max(Nernst): -1.329399 , 0.9951608
ibar0 = 5000    ibar = 1461.166    V = 0.7677346

stack Voltage =0.7677346
min,mean,max(current): 2.220446e-16 , 1461.166 , 4068.538

Calculating electrochemical heating
min,mean,max(electrochemicalHeating): 1.464978e-11  9.632946e+07  2.677369e+08

air species electrochemical fluxes and YEqn BCs
s species[] isFlux[] mflux[] = 0 O2 true -2.422935
s species[] isFlux[] mflux[] = 1 N2 false 0


air mass rates: 
   inlet: 2.637e-05   outlet: 1.879023e-05   cathode: 1.211468e-06
O2 mass rates: 
   inlet = 6.14421e-06   outlet = 2.693965e-06   chem = 1.211468e-06
      utilization by chemRate = 0.1971722
      utilization by outRate  = 0.5615441

fuel species electrochemical fluxes and YEqn BCs
s species[] isFlux[] mflux[] = 0 H2 true -0.3052922
s species[] isFlux[] mflux[] = 1 H2O true 2.728227


fuel mass rates: 
   inlet: 2.2875e-06   outlet: 3.06234e-06   anode: 1.211468e-06
H2 mass rates: 
   inlet = 1.788825e-06   outlet = 6.799761e-22   chem = 1.526461e-07
      utilization by chemRate = 0.08533316
      utilization by outRate  = 1


min mean max rhoCpF(air) = 298.4775 302.2592 356.914
min mean max rhoCpF(fuel) = 54.5776 106.7737 287.8258

ELECTROLYTE FLUX MAPPING ACTIVATED
time step continuity errors : sum local = 0.109868, global = -9.762264e-06

Solving energy
DILUPBiCG:  Solving for T, Initial residual = 0.3278796, Final residual = 3.692168e-11, No Iterations 660
T min mean max     = 1100.107    1225.4    1229.752

 sum TcellEqn.source() =   52.70613

ExecutionTime = 217.41 s


Time = 3

Tair min mean max  = 1100.107    1225.187    1229.752
Tfuel min mean max = 1178.407    1225.511    1229.752
min,mean,max(rhoAir): 0.2784999   0.2844748   0.3203916
min,mean,max(rhoFuel): 0.02606603   0.1129755   0.1811318
min,mean,max(muAir): 4.608177e-05   4.878148e-05   4.918432e-05
min,mean,max(muFuel): 2.839942e-05   4.22573e-05   4.64208e-05
min,mean,max(nuAir): 0.0001438295   0.0001714951   0.0001725036
min,mean,max(nuFuel): 0.0002558035   0.0005216772   0.001109516
min,mean,max(kAir): 0.0759793   0.08241516   0.08270774
min,mean,max(kFuel): 0.1291377   0.1955226   0.4062376

Solving fuel flow
DILUPBiCG:  Solving for Ux, Initial residual = 1.986478e-05, Final residual = 1.488555e-10, No Iterations 3
DILUPBiCG:  Solving for Uy, Initial residual = 0.2069388, Final residual = 7.814579e-10, No Iterations 2
DILUPBiCG:  Solving for Uz, Initial residual = 0.5119776, Final residual = 1.895258e-10, No Iterations 3
DICPCG:  Solving for p, Initial residual = 0.009017139, Final residual = 8.100174e-10, No Iterations 309
time step continuity errors : sum local = 2.372096e-07, global = 1.89815e-09
DICPCG:  Solving for p, Initial residual = 0.00704632, Final residual = 9.409373e-10, No Iterations 308
time step continuity errors : sum local = 1.954684e-07, global = 1.614659e-09

Solving air flow
DILUPBiCG:  Solving for Ux, Initial residual = 4.411425e-05, Final residual = 2.573175e-10, No Iterations 4
DILUPBiCG:  Solving for Uy, Initial residual = 0.3066258, Final residual = 1.505998e-10, No Iterations 4
DILUPBiCG:  Solving for Uz, Initial residual = 0.552876, Final residual = 4.819873e-10, No Iterations 4
DICPCG:  Solving for p, Initial residual = 0.0560739, Final residual = 9.870766e-10, No Iterations 523
time step continuity errors : sum local = 2.42005e-07, global = 1.864054e-10
DICPCG:  Solving for p, Initial residual = 0.2936408, Final residual = 9.956569e-10, No Iterations 652
time step continuity errors : sum local = 2.582373e-07, global = -4.865028e-11
ReAir  = 12.76484
ReFuel = 1.823357

airSpecies O2

airDiffModels[0]
  zone size = 260000
diffusivityModels::binaryFSG:
    diffusing speciesA molWt diffVol: O2 31.9988 16.3
   background speciesB molWt diffVol: N2 28.0134 18.5

airDiffModels[1]
  zone size = 100000
diffusivityModels::fixedDiffusivity: 
   diff0 = diff0 [0 2 -1 0 0 0 0] 2.9864e-05

airDiffModels[2]
  zone size = 60000
diffusivityModels::fixedDiffusivity: 
   diff0 = diff0 [0 2 -1 0 0 0 0] 1.054e-05

diffSpAir[O2]
    primitiveFieldRef min mean max = 1.054e-05  0.0001078258  0.0002462228

fuelSpecies H2

fuelDiffModels[0]
  zone size = 360000
diffusivityModels::binaryFSG:
    diffusing speciesA molWt diffVol: H2 2.01594 6.12
   background speciesB molWt diffVol: H2O 18.01534 13.1

fuelDiffModels[1]
  zone size = 200000
diffusivityModels::fixedDiffusivity: 
   diff0 = diff0 [0 2 -1 0 0 0 0] 0.00013124

fuelDiffModels[2]
  zone size = 60000
diffusivityModels::fixedDiffusivity: 
   diff0 = diff0 [0 2 -1 0 0 0 0] 4.6321e-05

diffSpFuel[H2]
    primitiveFieldRef() min mean max = 4.6321e-05  0.0003792622  0.001081959

Solving fuel scalars
 Yfuel[i].name() = YH2
DILUPBiCG:  Solving for YH2, Initial residual = 0.753372, Final residual = 7.231791e-10, No Iterations 289
 Yfuel[i].name() = YH2O
inertIndex = 1
min,mean,max(YH2): 0.2949401 , 0.3650374 , 0.7517821
min,mean,max(YH2O): 0.2482179 , 0.6349626 , 0.7050599

Solving air scalars
 Yair[i].name() = YO2
DILUPBiCG:  Solving for YO2, Initial residual = 0.3050297, Final residual = 6.113872e-10, No Iterations 151
 Yair[i].name() = YN2
inertIndex = 1
min,mean,max(YO2): 0.1192291 , 0.1876793 , 0.2325975
min,mean,max(YN2): 0.7674025 , 0.8123207 , 0.8807709

Solving electrochemistry
min,max(anodeT): 1198.946 , 1229.752
min,max(cathodeT): 1198.918 , 1229.752
min,mean,max(XO2): 0.1057273 , 0.1599041 , 0.196098
min,mean,max(XH2): 0.7889323 , 0.8210234 , 0.9284426
min,mean,max(XH2O): 0.07155738 , 0.1789766 , 0.2110677
min,mean,max Nernst = 0.9454889  0.9657522  1.030844
min,mean,max(i): 1080.788 , 2636.177 , 5556.247
min,mean,max(iNew): 10259.32 , 11395.84 , 14191.28
min,mean,max(iOld): 2.522701e-16 , 1662.881 , 4600.587
min,mean,max calBV(etaAn) = 0.00123518  0.003458378  0.01142965
min,mean,max calBV(etaCa) = 0.0004067386  0.001063435  0.002781549

Solve current

layer 1

sumVolume8e-08
min,max(Nernst): 0.9454889 , 1.030844
ibar0 = 5000    ibar = 2636.177    V = 0.7440963

stack Voltage =0.7440963
min,mean,max(current): 1080.788 , 2636.177 , 5556.247

Calculating electrochemical heating
min,mean,max(electrochemicalHeating): 7.390211e+07  1.802206e+08  3.794083e+08

air species electrochemical fluxes and YEqn BCs
s species[] isFlux[] mflux[] = 0 O2 true -4.371363
s species[] isFlux[] mflux[] = 1 N2 false 0


air mass rates: 
   inlet: 2.637e-05   outlet: 3.181455e-05   cathode: 2.185681e-06
O2 mass rates: 
   inlet = 6.14421e-06   outlet = 6.062411e-06   chem = 2.185681e-06
      utilization by chemRate = 0.3557303
      utilization by outRate  = 0.01331314

fuel species electrochemical fluxes and YEqn BCs
s species[] isFlux[] mflux[] = 0 H2 true -0.550796
s species[] isFlux[] mflux[] = 1 H2O true 4.922159


fuel mass rates: 
   inlet: 2.2875e-06   outlet: 2.630109e-05   anode: 2.185681e-06
H2 mass rates: 
   inlet = 1.788825e-06   outlet = 8.197779e-06   chem = 2.75398e-07
      utilization by chemRate = 0.1539547
      utilization by outRate  = -3.582773


min mean max rhoCpF(air) = 331.6954 338.6935 373.9672
min mean max rhoCpF(fuel) = 312.7168 759.7383 1176.713

ELECTROLYTE FLUX MAPPING ACTIVATED
time step continuity errors : sum local = 0.108023, global = 0.01973965

Solving energy
DILUPBiCG:  Solving for T, Initial residual = 0.291268, Final residual = 3.277975e-11, No Iterations 556
T min mean max     = 1100.568    1233.011    1239.147

 sum TcellEqn.source() =   82.34642

ExecutionTime = 294.26 s


Time = 4

Tair min mean max  = 1100.568    1232.782    1239.146
Tfuel min mean max = 1180.907    1233.126    1239.146
min,mean,max(rhoAir): 0.2806598   0.2836127   0.319908
min,mean,max(rhoFuel): 0.02601703   0.04718557   0.05403958
min,mean,max(muAir): 4.609286e-05   4.92227e-05   4.941186e-05
min,mean,max(muFuel): 2.855782e-05   3.827281e-05   3.989287e-05
min,mean,max(nuAir): 0.0001440816   0.0001735736   0.0001752871
min,mean,max(nuFuel): 0.0007380298   0.0008236464   0.001118409
min,mean,max(kAir): 0.07600401   0.08295268   0.08330383
min,mean,max(kFuel): 0.2407384   0.2666644   0.4060651

Solving fuel flow
DILUPBiCG:  Solving for Ux, Initial residual = 4.529225e-05, Final residual = 2.279248e-10, No Iterations 3
DILUPBiCG:  Solving for Uy, Initial residual = 0.1299817, Final residual = 3.760998e-11, No Iterations 3
DILUPBiCG:  Solving for Uz, Initial residual = 0.2276676, Final residual = 7.928462e-11, No Iterations 3
DICPCG:  Solving for p, Initial residual = 0.009447571, Final residual = 9.093565e-10, No Iterations 446
time step continuity errors : sum local = 7.188881e-08, global = 1.361481e-10
DICPCG:  Solving for p, Initial residual = 0.01028782, Final residual = 9.165943e-10, No Iterations 446
time step continuity errors : sum local = 4.427715e-08, global = 5.279638e-11

Solving air flow
DILUPBiCG:  Solving for Ux, Initial residual = 1.317818e-05, Final residual = 4.90381e-10, No Iterations 3
DILUPBiCG:  Solving for Uy, Initial residual = 0.1359231, Final residual = 8.368008e-11, No Iterations 4
DILUPBiCG:  Solving for Uz, Initial residual = 0.2162987, Final residual = 3.940409e-10, No Iterations 4
DICPCG:  Solving for p, Initial residual = 0.1486458, Final residual = 8.557025e-10, No Iterations 652
time step continuity errors : sum local = 2.543063e-07, global = -6.892845e-11
DICPCG:  Solving for p, Initial residual = 0.02436561, Final residual = 9.215899e-10, No Iterations 532
time step continuity errors : sum local = 2.395566e-07, global = 1.508476e-11
ReAir  = 12.75124
ReFuel = 1.810853

airSpecies O2

airDiffModels[0]
  zone size = 260000
diffusivityModels::binaryFSG:
    diffusing speciesA molWt diffVol: O2 31.9988 16.3
   background speciesB molWt diffVol: N2 28.0134 18.5

airDiffModels[1]
  zone size = 100000
diffusivityModels::fixedDiffusivity: 
   diff0 = diff0 [0 2 -1 0 0 0 0] 2.9864e-05

airDiffModels[2]
  zone size = 60000
diffusivityModels::fixedDiffusivity: 
   diff0 = diff0 [0 2 -1 0 0 0 0] 1.054e-05

diffSpAir[O2]
    primitiveFieldRef min mean max = 1.054e-05  0.0001088859  0.0002495161

fuelSpecies H2

fuelDiffModels[0]
  zone size = 360000
diffusivityModels::binaryFSG:
    diffusing speciesA molWt diffVol: H2 2.01594 6.12
   background speciesB molWt diffVol: H2O 18.01534 13.1

fuelDiffModels[1]
  zone size = 200000
diffusivityModels::fixedDiffusivity: 
   diff0 = diff0 [0 2 -1 0 0 0 0] 0.00013124

fuelDiffModels[2]
  zone size = 60000
diffusivityModels::fixedDiffusivity: 
   diff0 = diff0 [0 2 -1 0 0 0 0] 4.6321e-05

diffSpFuel[H2]
    primitiveFieldRef() min mean max = 4.6321e-05  0.0003826024  0.001096336

Solving fuel scalars
 Yfuel[i].name() = YH2
DILUPBiCG:  Solving for YH2, Initial residual = 0.1974182, Final residual = 6.757134e-10, No Iterations 254
 Yfuel[i].name() = YH2O
inertIndex = 1
min,mean,max(YH2): 0.471308 , 0.5090384 , 0.7565154
min,mean,max(YH2O): 0.2434846 , 0.4909616 , 0.528692

Solving air scalars
 Yair[i].name() = YO2
DILUPBiCG:  Solving for YO2, Initial residual = 0.1382834, Final residual = 9.621904e-10, No Iterations 140
 Yair[i].name() = YN2
inertIndex = 1
min,mean,max(YO2): 0.09586625 , 0.1690519 , 0.2325093
min,mean,max(YN2): 0.7674907 , 0.8309481 , 0.9041338

Solving electrochemistry
min,max(anodeT): 1204.269 , 1239.147
min,max(cathodeT): 1204.242 , 1239.147
min,mean,max(XO2): 0.08467599 , 0.1379131 , 0.1932066
min,mean,max(XH2): 0.8884714 , 0.8977013 , 0.9350326
min,mean,max(XH2O): 0.06496735 , 0.1022987 , 0.1115286
min,mean,max Nernst = 0.9789244  0.9930023  1.034686
min,mean,max(i): 2401.122 , 3799.206 , 6493.042
min,mean,max(iNew): 13434.61 , 14363.6 , 15389.54
min,mean,max(iOld): 1085.083 , 2625.385 , 5524.212
min,mean,max calBV(etaAn) = 0.003119712  0.005404042  0.01312775
min,mean,max calBV(etaCa) = 0.0008342283  0.00143725  0.003063929

Solve current

layer 1

sumVolume8e-08
min,max(Nernst): 0.9789244 , 1.034686
ibar0 = 5000    ibar = 3799.206    V = 0.7320884

stack Voltage =0.7320884
min,mean,max(current): 2401.122 , 3799.206 , 6493.042

Calculating electrochemical heating
min,mean,max(electrochemicalHeating): 1.678462e+08  2.655326e+08  4.532377e+08

air species electrochemical fluxes and YEqn BCs
s species[] isFlux[] mflux[] = 0 O2 true -6.299923
s species[] isFlux[] mflux[] = 1 N2 false 0


air mass rates: 
   inlet: 2.637e-05   outlet: 3.179077e-05   cathode: 3.149962e-06
O2 mass rates: 
   inlet = 6.14421e-06   outlet = 5.265176e-06   chem = 3.149962e-06
      utilization by chemRate = 0.5126716
      utilization by outRate  = 0.1430671

fuel species electrochemical fluxes and YEqn BCs
s species[] isFlux[] mflux[] = 0 H2 true -0.7937965
s species[] isFlux[] mflux[] = 1 H2O true 7.09372


fuel mass rates: 
   inlet: 2.2875e-06   outlet: 4.656488e-06   anode: 3.149962e-06
H2 mass rates: 
   inlet = 1.788825e-06   outlet = 2.210676e-06   chem = 3.968982e-07
      utilization by chemRate = 0.2218765
      utilization by outRate  = -0.2358256


min mean max rhoCpF(air) = 336.7027 338.4551 373.4338
min mean max rhoCpF(fuel) = 318.972 424.1457 472.0602

ELECTROLYTE FLUX MAPPING ACTIVATED
time step continuity errors : sum local = 0.05777825, global = -0.006424768

Solving energy
DILUPBiCG:  Solving for T, Initial residual = 0.126984, Final residual = 9.002923e-11, No Iterations 543
T min mean max     = 1134.782    1312.853    1324.611

 sum TcellEqn.source() =   56.12423

ExecutionTime = 374.26 s


Time = 5

Tair min mean max  = 1134.782    1312.528    1324.61
Tfuel min mean max = 1239.613    1313.007    1324.609
min,mean,max(rhoAir): 0.262008   0.2656169   0.3098975
min,mean,max(rhoFuel): 0.02445903   0.03342163   0.03500156
min,mean,max(muAir): 4.701726e-05   5.107633e-05   5.135995e-05
min,mean,max(muFuel): 2.960111e-05   3.700635e-05   3.821048e-05
min,mean,max(nuAir): 0.0001517187   0.0001923333   0.000195103
min,mean,max(nuFuel): 0.001077294   0.00110892   0.001244636
min,mean,max(kAir): 0.07788465   0.08702926   0.08763146
min,mean,max(kFuel): 0.3262111   0.3383948   0.426174

Solving fuel flow
DILUPBiCG:  Solving for Ux, Initial residual = 5.766364e-05, Final residual = 4.354504e-10, No Iterations 3
DILUPBiCG:  Solving for Uy, Initial residual = 0.07252763, Final residual = 3.649304e-11, No Iterations 3
DILUPBiCG:  Solving for Uz, Initial residual = 0.1064677, Final residual = 4.745296e-11, No Iterations 3
DICPCG:  Solving for p, Initial residual = 0.01304194, Final residual = 8.928977e-10, No Iterations 440
time step continuity errors : sum local = 3.218399e-08, global = -4.997221e-11
DICPCG:  Solving for p, Initial residual = 0.005882331, Final residual = 9.777394e-10, No Iterations 433
time step continuity errors : sum local = 3.886215e-08, global = -8.041127e-11

Solving air flow
DILUPBiCG:  Solving for Ux, Initial residual = 1.01624e-05, Final residual = 1.925224e-10, No Iterations 3
DILUPBiCG:  Solving for Uy, Initial residual = 0.07630754, Final residual = 1.109325e-10, No Iterations 4
DILUPBiCG:  Solving for Uz, Initial residual = 0.1089668, Final residual = 2.328064e-10, No Iterations 4
DICPCG:  Solving for p, Initial residual = 0.03841481, Final residual = 9.651087e-10, No Iterations 530
time step continuity errors : sum local = 2.134679e-07, global = -1.930553e-10
DICPCG:  Solving for p, Initial residual = 0.0137916, Final residual = 9.786522e-10, No Iterations 508
time step continuity errors : sum local = 2.185011e-07, global = -1.525705e-10
ReAir  = 12.41974
ReFuel = 1.743776

airSpecies O2

airDiffModels[0]
  zone size = 260000
diffusivityModels::binaryFSG:
    diffusing speciesA molWt diffVol: O2 31.9988 16.3
   background speciesB molWt diffVol: N2 28.0134 18.5

airDiffModels[1]
  zone size = 100000
diffusivityModels::fixedDiffusivity: 
   diff0 = diff0 [0 2 -1 0 0 0 0] 2.9864e-05

airDiffModels[2]
  zone size = 60000
diffusivityModels::fixedDiffusivity: 
   diff0 = diff0 [0 2 -1 0 0 0 0] 1.054e-05

diffSpAir[O2]
    primitiveFieldRef min mean max = 1.054e-05  0.0001198777  0.0002803889

fuelSpecies H2

fuelDiffModels[0]
  zone size = 360000
diffusivityModels::binaryFSG:
    diffusing speciesA molWt diffVol: H2 2.01594 6.12
   background speciesB molWt diffVol: H2O 18.01534 13.1

fuelDiffModels[1]
  zone size = 200000
diffusivityModels::fixedDiffusivity: 
   diff0 = diff0 [0 2 -1 0 0 0 0] 0.00013124

fuelDiffModels[2]
  zone size = 60000
diffusivityModels::fixedDiffusivity: 
   diff0 = diff0 [0 2 -1 0 0 0 0] 4.6321e-05

diffSpFuel[H2]
    primitiveFieldRef() min mean max = 4.6321e-05  0.0004174187  0.001231693

Solving fuel scalars
 Yfuel[i].name() = YH2
DILUPBiCG:  Solving for YH2, Initial residual = 0.2998936, Final residual = 8.919328e-10, No Iterations 240
 Yfuel[i].name() = YH2O
inertIndex = 1
min,mean,max(YH2): 0.2273629 , 0.3726934 , 0.7514742
min,mean,max(YH2O): 0.2485258 , 0.6273066 , 0.7726371

Solving air scalars
 Yair[i].name() = YO2
DILUPBiCG:  Solving for YO2, Initial residual = 0.1419056, Final residual = 3.136546e-10, No Iterations 161
 Yair[i].name() = YN2
inertIndex = 1
min,mean,max(YO2): 0.06482544 , 0.1487708 , 0.2324297
min,mean,max(YN2): 0.7675703 , 0.8512292 , 0.9351746

Solving electrochemistry
min,max(anodeT): 1270.368 , 1324.611
min,max(cathodeT): 1270.334 , 1324.611
min,mean,max(XO2): 0.05690472 , 0.1133619 , 0.1905306
min,mean,max(XH2): 0.7244292 , 0.8156972 , 0.9250851
min,mean,max(XH2O): 0.07491486 , 0.1843028 , 0.2755708
min,mean,max Nernst = 0.8812003  0.9303774  1.011833
min,mean,max(i): 3088.468 , 4560.52 , 7220.361
min,mean,max(iNew): 10568.36 , 13563.27 , 17137.31
min,mean,max(iOld): 2243.544 , 3560.215 , 6145.356
min,mean,max calBV(etaAn) = 0.001498977  0.003001557  0.008149582
min,mean,max calBV(etaCa) = 0.0004858203  0.0007950717  0.001658335

Solve current

layer 1

sumVolume8e-08
min,max(Nernst): 0.8812003 , 1.011833
ibar0 = 5000    ibar = 4560.52    V = 0.7276936

stack Voltage =0.7276936
min,mean,max(current): 3088.468 , 4560.52 , 7220.361

Calculating electrochemical heating
min,mean,max(electrochemicalHeating): 2.18418e+08  3.22343e+08  5.09486e+08

air species electrochemical fluxes and YEqn BCs
s species[] isFlux[] mflux[] = 0 O2 true -7.56235
s species[] isFlux[] mflux[] = 1 N2 false 0


air mass rates: 
   inlet: 2.637e-05   outlet: 2.553321e-05   cathode: 3.781175e-06
O2 mass rates: 
   inlet = 6.14421e-06   outlet = 3.554294e-06   chem = 3.781175e-06
      utilization by chemRate = 0.6154046
      utilization by outRate  = 0.4215214

fuel species electrochemical fluxes and YEqn BCs
s species[] isFlux[] mflux[] = 0 H2 true -0.9528635
s species[] isFlux[] mflux[] = 1 H2O true 8.515213


fuel mass rates: 
   inlet: 2.2875e-06   outlet: 2.677536e-06   anode: 3.781175e-06
H2 mass rates: 
   inlet = 1.788825e-06   outlet = 7.082113e-07   chem = 4.764317e-07
      utilization by chemRate = 0.2663378
      utilization by outRate  = 0.6040913


min mean max rhoCpF(air) = 318.1493 320.4235 363.4935
min mean max rhoCpF(fuel) = 192.4679 244.5169 309.3317

ELECTROLYTE FLUX MAPPING ACTIVATED
time step continuity errors : sum local = 0.08695409, global = -0.005844946

Solving energy
DILUPBiCG:  Solving for T, Initial residual = 0.1051762, Final residual = 5.859337e-11, No Iterations 537
T min mean max     = 1166.924    1380.8    1395.866

 sum TcellEqn.source() =   74.64856

ExecutionTime = 452.6 s


Time = 6

Tair min mean max  = 1166.924    1380.41    1395.865
Tfuel min mean max = 1292.955    1380.988    1395.863
min,mean,max(rhoAir): 0.2465992   0.2518469   0.301249
min,mean,max(rhoFuel): 0.02350899   0.04181982   0.05620859
min,mean,max(muAir): 4.787509e-05   5.25588e-05   5.292374e-05
min,mean,max(muFuel): 3.077056e-05   4.227851e-05   4.649727e-05
min,mean,max(nuAir): 0.000158922   0.000208755   0.0002122981
min,mean,max(nuFuel): 0.0008272271   0.001031625   0.001350288
min,mean,max(kAir): 0.079633   0.09038745   0.09111519
min,mean,max(kFuel): 0.2433526   0.2987239   0.4400804

Solving fuel flow
DILUPBiCG:  Solving for Ux, Initial residual = 3.143454e-05, Final residual = 2.538155e-10, No Iterations 3
DILUPBiCG:  Solving for Uy, Initial residual = 0.02937417, Final residual = 3.568595e-11, No Iterations 3
DILUPBiCG:  Solving for Uz, Initial residual = 0.04296822, Final residual = 3.252764e-11, No Iterations 3
DICPCG:  Solving for p, Initial residual = 0.00804535, Final residual = 9.745121e-10, No Iterations 384
time step continuity errors : sum local = 4.36554e-08, global = 4.478497e-11
DICPCG:  Solving for p, Initial residual = 0.002489498, Final residual = 9.731634e-10, No Iterations 311
time step continuity errors : sum local = 7.332309e-08, global = -1.840545e-10

Solving air flow
DILUPBiCG:  Solving for Ux, Initial residual = 1.272169e-05, Final residual = 2.782608e-11, No Iterations 4
DILUPBiCG:  Solving for Uy, Initial residual = 0.0651306, Final residual = 8.701781e-10, No Iterations 3
DILUPBiCG:  Solving for Uz, Initial residual = 0.09404535, Final residual = 5.974091e-11, No Iterations 4
DICPCG:  Solving for p, Initial residual = 0.0206752, Final residual = 7.787438e-10, No Iterations 522
time step continuity errors : sum local = 1.980157e-07, global = -4.989731e-11
DICPCG:  Solving for p, Initial residual = 0.01207879, Final residual = 9.986387e-10, No Iterations 506
time step continuity errors : sum local = 2.021689e-07, global = 3.156798e-10
ReAir  = 12.13826
ReFuel = 1.674844

airSpecies O2

airDiffModels[0]
  zone size = 260000
diffusivityModels::binaryFSG:
    diffusing speciesA molWt diffVol: O2 31.9988 16.3
   background speciesB molWt diffVol: N2 28.0134 18.5

airDiffModels[1]
  zone size = 100000
diffusivityModels::fixedDiffusivity: 
   diff0 = diff0 [0 2 -1 0 0 0 0] 2.9864e-05

airDiffModels[2]
  zone size = 60000
diffusivityModels::fixedDiffusivity: 
   diff0 = diff0 [0 2 -1 0 0 0 0] 1.054e-05

diffSpAir[O2]
    primitiveFieldRef min mean max = 1.054e-05  0.0001296163  0.0003073057

fuelSpecies H2

fuelDiffModels[0]
  zone size = 360000
diffusivityModels::binaryFSG:
    diffusing speciesA molWt diffVol: H2 2.01594 6.12
   background speciesB molWt diffVol: H2O 18.01534 13.1

fuelDiffModels[1]
  zone size = 200000
diffusivityModels::fixedDiffusivity: 
   diff0 = diff0 [0 2 -1 0 0 0 0] 0.00013124

fuelDiffModels[2]
  zone size = 60000
diffusivityModels::fixedDiffusivity: 
   diff0 = diff0 [0 2 -1 0 0 0 0] 4.6321e-05

diffSpFuel[H2]
    primitiveFieldRef() min mean max = 4.6321e-05  0.0004483324  0.001349793

Solving fuel scalars
 Yfuel[i].name() = YH2
DILUPBiCG:  Solving for YH2, Initial residual = 0.1462468, Final residual = 8.744645e-10, No Iterations 211
 Yfuel[i].name() = YH2O
inertIndex = 1
min,mean,max(YH2): 0.02813506 , 0.2282019 , 0.7428074
min,mean,max(YH2O): 0.2571926 , 0.7717981 , 0.9718649

Solving air scalars
 Yair[i].name() = YO2
DILUPBiCG:  Solving for YO2, Initial residual = 0.1097465, Final residual = 1.823102e-10, No Iterations 150
 Yair[i].name() = YN2
inertIndex = 1
min,mean,max(YO2): 0.0224061 , 0.129821 , 0.232342
min,mean,max(YN2): 0.767658 , 0.870179 , 0.9775939

Solving electrochemistry
min,max(anodeT): 1328.256 , 1395.866
min,max(cathodeT): 1328.214 , 1395.866
min,mean,max(XO2): 0.01944361 , 0.09062877 , 0.187427
min,mean,max(XH2): 0.2051445 , 0.6081987 , 0.9110359
min,mean,max(XH2O): 0.08896412 , 0.3918013 , 0.7948555
min,mean,max Nernst = 0.6829809  0.841498  0.9878445
min,mean,max(i): 2225.086 , 4779.778 , 8050.511
min,mean,max(iNew): -3910.648 , 8888.618 , 18523.71
min,mean,max(iOld): 2906.834 , 4323.24 , 6900.477
min,mean,max calBV(etaAn) = 0.0004127685  0.001642657  0.005583592
min,mean,max calBV(etaCa) = 0.0002410756  0.0004767821  0.001043743

Solve current

layer 1

sumVolume8e-08
min,max(Nernst): 0.6829809 , 0.9878445
ibar0 = 5000    ibar = 4779.778    V = 0.7254914

stack Voltage =0.7254914
min,mean,max(current): 2225.086 , 4779.778 , 8050.511

Calculating electrochemical heating
min,mean,max(electrochemicalHeating): 1.584004e+08  3.400373e+08  5.716454e+08

air species electrochemical fluxes and YEqn BCs
s species[] isFlux[] mflux[] = 0 O2 true -7.925927
s species[] isFlux[] mflux[] = 1 N2 false 0


air mass rates: 
   inlet: 2.637e-05   outlet: 2.13199e-05   cathode: 3.962963e-06
O2 mass rates: 
   inlet = 6.14421e-06   outlet = 2.471139e-06   chem = 3.962963e-06
      utilization by chemRate = 0.6449915
      utilization by outRate  = 0.5978101

fuel species electrochemical fluxes and YEqn BCs
s species[] isFlux[] mflux[] = 0 H2 true -0.9986745
s species[] isFlux[] mflux[] = 1 H2O true 8.924601


fuel mass rates: 
   inlet: 2.2875e-06   outlet: 5.383903e-06   anode: 3.962963e-06
H2 mass rates: 
   inlet = 1.788825e-06   outlet = 3.901974e-07   chem = 4.993373e-07
      utilization by chemRate = 0.2791426
      utilization by outRate  = 0.7818694


min mean max rhoCpF(air) = 303.1313 306.4504 354.8771
min mean max rhoCpF(fuel) = 164.4605 218.0141 297.8516

ELECTROLYTE FLUX MAPPING ACTIVATED
time step continuity errors : sum local = 0.1562337, global = 0.009783591

Solving energy
DILUPBiCG:  Solving for T, Initial residual = 0.06333393, Final residual = 5.883132e-11, No Iterations 540
T min mean max     = 1184.834    1414.718    1429.826

 sum TcellEqn.source() =   103.9207

ExecutionTime = 526.62 s


Time = 7

Tair min mean max  = 1184.834    1414.324    1429.824
Tfuel min mean max = 1321.424    1414.922    1429.823
min,mean,max(rhoAir): 0.2390051   0.2452127   0.2967667
min,mean,max(rhoFuel): 0.02321625   0.06511092   0.1264648
min,mean,max(muAir): 4.834797e-05   5.319526e-05   5.364463e-05
min,mean,max(muFuel): 3.155569e-05   4.71303e-05   5.298748e-05
min,mean,max(nuAir): 0.0001629158   0.0002170045   0.0002205517
min,mean,max(nuFuel): 0.0004189901   0.0008113163   0.001401139
min,mean,max(kAir): 0.08059928   0.09198263   0.09269891
min,mean,max(kFuel): 0.168161   0.2468098   0.4448287

Solving fuel flow
DILUPBiCG:  Solving for Ux, Initial residual = 2.0098e-05, Final residual = 1.552993e-10, No Iterations 3
DILUPBiCG:  Solving for Uy, Initial residual = 0.04230163, Final residual = 7.03051e-10, No Iterations 2
DILUPBiCG:  Solving for Uz, Initial residual = 0.07002903, Final residual = 2.866359e-11, No Iterations 3
DICPCG:  Solving for p, Initial residual = 0.004345445, Final residual = 9.787623e-10, No Iterations 395
time step continuity errors : sum local = 1.206688e-07, global = -6.334261e-11
DICPCG:  Solving for p, Initial residual = 0.002397639, Final residual = 8.551306e-10, No Iterations 310
time step continuity errors : sum local = 1.104497e-07, global = -2.520435e-10

Solving air flow
DILUPBiCG:  Solving for Ux, Initial residual = 6.894881e-06, Final residual = 6.176804e-10, No Iterations 3
DILUPBiCG:  Solving for Uy, Initial residual = 0.06623974, Final residual = 7.894376e-11, No Iterations 4
DILUPBiCG:  Solving for Uz, Initial residual = 0.1052018, Final residual = 1.281295e-10, No Iterations 4
DICPCG:  Solving for p, Initial residual = 0.01546109, Final residual = 8.73631e-10, No Iterations 516
time step continuity errors : sum local = 1.936641e-07, global = -1.246768e-10
DICPCG:  Solving for p, Initial residual = 0.01089582, Final residual = 9.122858e-10, No Iterations 508
time step continuity errors : sum local = 1.908538e-07, global = 1.586436e-10
ReAir  = 11.99344
ReFuel = 1.6316

airSpecies O2

airDiffModels[0]
  zone size = 260000
diffusivityModels::binaryFSG:
    diffusing speciesA molWt diffVol: O2 31.9988 16.3
   background speciesB molWt diffVol: N2 28.0134 18.5

airDiffModels[1]
  zone size = 100000
diffusivityModels::fixedDiffusivity: 
   diff0 = diff0 [0 2 -1 0 0 0 0] 2.9864e-05

airDiffModels[2]
  zone size = 60000
diffusivityModels::fixedDiffusivity: 
   diff0 = diff0 [0 2 -1 0 0 0 0] 1.054e-05

diffSpAir[O2]
    primitiveFieldRef min mean max = 1.054e-05  0.0001346078  0.0003205123

fuelSpecies H2

fuelDiffModels[0]
  zone size = 360000
diffusivityModels::binaryFSG:
    diffusing speciesA molWt diffVol: H2 2.01594 6.12
   background speciesB molWt diffVol: H2O 18.01534 13.1

fuelDiffModels[1]
  zone size = 200000
diffusivityModels::fixedDiffusivity: 
   diff0 = diff0 [0 2 -1 0 0 0 0] 0.00013124

fuelDiffModels[2]
  zone size = 60000
diffusivityModels::fixedDiffusivity: 
   diff0 = diff0 [0 2 -1 0 0 0 0] 4.6321e-05

diffSpFuel[H2]
    primitiveFieldRef() min mean max = 4.6321e-05  0.0004644103  0.001407906

Solving fuel scalars
 Yfuel[i].name() = YH2
DILUPBiCG:  Solving for YH2, Initial residual = 0.2764644, Final residual = 5.650336e-10, No Iterations 231
 Yfuel[i].name() = YH2O
inertIndex = 1
min,mean,max(YH2): 0.1609798 , 0.2796557 , 0.7384244
min,mean,max(YH2O): 0.2615756 , 0.7203443 , 0.8390202

Solving air scalars
 Yair[i].name() = YO2
DILUPBiCG:  Solving for YO2, Initial residual = 0.05445069, Final residual = 9.621836e-10, No Iterations 157
 Yair[i].name() = YN2
inertIndex = 1
min,mean,max(YO2): 0.01089055 , 0.1181552 , 0.232245
min,mean,max(YN2): 0.767755 , 0.8818448 , 0.9891094

Solving electrochemistry
min,max(anodeT): 1358.548 , 1429.825
min,max(cathodeT): 1358.501 , 1429.825
min,mean,max(XO2): 0.009135132 , 0.07749566 , 0.1838778
min,mean,max(XH2): 0.6316002 , 0.7350233 , 0.9052572
min,mean,max(XH2O): 0.09474278 , 0.2649767 , 0.3683998
min,mean,max Nernst = 0.7860939  0.8552294  0.9762493
min,mean,max(i): 2469.629 , 5275.507 , 8997.549
min,mean,max(iNew): 5200.892 , 10890.53 , 19198.82
min,mean,max(iOld): 2156.563 , 4651.616 , 7869.437
min,mean,max calBV(etaAn) = 0.0005329008  0.001558945  0.004954151
min,mean,max calBV(etaCa) = 0.0002123702  0.0004196018  0.000970112

Solve current

layer 1

sumVolume8e-08
min,max(Nernst): 0.7860939 , 0.9762493
ibar0 = 5000    ibar = 5275.507    V = 0.7282464

stack Voltage =0.7282464
min,mean,max(current): 2469.629 , 5275.507 , 8997.549

Calculating electrochemical heating
min,mean,max(electrochemicalHeating): 1.7517e+08  3.739517e+08  6.365477e+08

air species electrochemical fluxes and YEqn BCs
s species[] isFlux[] mflux[] = 0 O2 true -8.747956
s species[] isFlux[] mflux[] = 1 N2 false 0


air mass rates: 
   inlet: 2.637e-05   outlet: 2.048687e-05   cathode: 4.373978e-06
O2 mass rates: 
   inlet = 6.14421e-06   outlet = 2.132745e-06   chem = 4.373978e-06
      utilization by chemRate = 0.7118861
      utilization by outRate  = 0.6528855

fuel species electrochemical fluxes and YEqn BCs
s species[] isFlux[] mflux[] = 0 H2 true -1.102251
s species[] isFlux[] mflux[] = 1 H2O true 9.850207


fuel mass rates: 
   inlet: 2.2875e-06   outlet: 1.104599e-05   anode: 4.373978e-06
H2 mass rates: 
   inlet = 1.788825e-06   outlet = 1.890501e-06   chem = 5.511255e-07
      utilization by chemRate = 0.3080936
      utilization by outRate  = -0.05683963


min mean max rhoCpF(air) = 294.7187 299.636 350.4126
min mean max rhoCpF(fuel) = 283.1248 376.3254 596.0515

ELECTROLYTE FLUX MAPPING ACTIVATED
time step continuity errors : sum local = 0.1891824, global = 0.01755397

Solving energy
DILUPBiCG:  Solving for T, Initial residual = 0.05700659, Final residual = 9.520873e-11, No Iterations 638
T min mean max     = 1200.545    1447.021    1463.519

 sum TcellEqn.source() =   137.313

ExecutionTime = 609.59 s


Time = 8

Tair min mean max  = 1200.545    1446.627    1463.517
Tfuel min mean max = 1346.892    1447.239    1463.515
min,mean,max(rhoAir): 0.2335254   0.2394071   0.2929803
min,mean,max(rhoFuel): 0.02284085   0.05046827   0.06630108
min,mean,max(muAir): 4.875974e-05   5.384949e-05   5.435408e-05
min,mean,max(muFuel): 3.217174e-05   4.668894e-05   5.044174e-05
min,mean,max(nuAir): 0.0001664267   0.000225009   0.0002289421
min,mean,max(nuFuel): 0.0007607982   0.0009612216   0.00145336
min,mean,max(kAir): 0.0814422   0.09351007   0.09427478
min,mean,max(kFuel): 0.2279445   0.2737228   0.4505485

Solving fuel flow
DILUPBiCG:  Solving for Ux, Initial residual = 2.638461e-05, Final residual = 1.268791e-10, No Iterations 3
DILUPBiCG:  Solving for Uy, Initial residual = 0.04011925, Final residual = 3.190595e-10, No Iterations 2
DILUPBiCG:  Solving for Uz, Initial residual = 0.07178154, Final residual = 2.517398e-11, No Iterations 3
DICPCG:  Solving for p, Initial residual = 0.003586708, Final residual = 8.919567e-10, No Iterations 312
time step continuity errors : sum local = 7.938077e-08, global = 1.71711e-11
DICPCG:  Solving for p, Initial residual = 0.002571403, Final residual = 6.818813e-10, No Iterations 312
time step continuity errors : sum local = 4.961843e-08, global = 6.070566e-11

Solving air flow
DILUPBiCG:  Solving for Ux, Initial residual = 4.155266e-06, Final residual = 1.802482e-10, No Iterations 3
DILUPBiCG:  Solving for Uy, Initial residual = 0.05482711, Final residual = 5.777149e-11, No Iterations 4
DILUPBiCG:  Solving for Uz, Initial residual = 0.0938298, Final residual = 1.071936e-10, No Iterations 4
DICPCG:  Solving for p, Initial residual = 0.01363931, Final residual = 8.101281e-10, No Iterations 508
time step continuity errors : sum local = 1.823555e-07, global = 1.802214e-10
DICPCG:  Solving for p, Initial residual = 0.00892036, Final residual = 8.522727e-10, No Iterations 501
time step continuity errors : sum local = 1.836468e-07, global = 8.976129e-11
ReAir  = 11.86745
ReFuel = 1.599114

airSpecies O2

airDiffModels[0]
  zone size = 260000
diffusivityModels::binaryFSG:
    diffusing speciesA molWt diffVol: O2 31.9988 16.3
   background speciesB molWt diffVol: N2 28.0134 18.5

airDiffModels[1]
  zone size = 100000
diffusivityModels::fixedDiffusivity: 
   diff0 = diff0 [0 2 -1 0 0 0 0] 2.9864e-05

airDiffModels[2]
  zone size = 60000
diffusivityModels::fixedDiffusivity: 
   diff0 = diff0 [0 2 -1 0 0 0 0] 1.054e-05

diffSpAir[O2]
    primitiveFieldRef min mean max = 1.054e-05  0.0001394526  0.0003338389

fuelSpecies H2

fuelDiffModels[0]
  zone size = 360000
diffusivityModels::binaryFSG:
    diffusing speciesA molWt diffVol: H2 2.01594 6.12
   background speciesB molWt diffVol: H2O 18.01534 13.1

fuelDiffModels[1]
  zone size = 200000
diffusivityModels::fixedDiffusivity: 
   diff0 = diff0 [0 2 -1 0 0 0 0] 0.00013124

fuelDiffModels[2]
  zone size = 60000
diffusivityModels::fixedDiffusivity: 
   diff0 = diff0 [0 2 -1 0 0 0 0] 4.6321e-05

diffSpFuel[H2]
    primitiveFieldRef() min mean max = 4.6321e-05  0.0004799211  0.00146639

Solving fuel scalars
 Yfuel[i].name() = YH2
DILUPBiCG:  Solving for YH2, Initial residual = 0.07776221, Final residual = 9.690381e-10, No Iterations 213
 Yfuel[i].name() = YH2O
inertIndex = 1
min,mean,max(YH2): 0.2430352 , 0.3321772 , 0.7370525
min,mean,max(YH2O): 0.2629475 , 0.6678228 , 0.7569648

Solving air scalars
 Yair[i].name() = YO2
DILUPBiCG:  Solving for YO2, Initial residual = 0.05382373, Final residual = 8.722819e-10, No Iterations 154
 Yair[i].name() = YN2
inertIndex = 1
min,mean,max(YO2): 2.220446e-16 , 0.1051884 , 0.2321524
min,mean,max(YN2): 0.7678476 , 0.8948116 , 1

Solving electrochemistry
min,max(anodeT): 1386.371 , 1463.518
min,max(cathodeT): 1386.32 , 1463.518
min,mean,max(XO2): 2.220446e-16 , 0.06324249 , 0.1803629
min,mean,max(XH2): 0.7415354 , 0.7935679 , 0.9025717
min,mean,max(XH2O): 0.09742833 , 0.2064321 , 0.2584646
min,mean,max Nernst = -0.2066  0.6540139  0.9673077
min,mean,max(i): 2.220446e-16 , 4747.345 , 9858.593
min,mean,max(iNew): -82357.96 , -6687.054 , 19247.16
min,mean,max(iOld): 2413.604 , 5149.247 , 8815.42
min,mean,max calBV(etaAn) = -1.11e-30  0.001219086  0.004463189
min,mean,max calBV(etaCa) = -1.11e-30  0.0002861166  0.00203283

Solve current

layer 1

sumVolume8e-08
min,max(Nernst): -0.2066 , 0.9673077
ibar0 = 5000    ibar = 4747.345    V = 0.7257199

stack Voltage =0.7257199
min,mean,max(current): 2.220446e-16 , 4747.345 , 9858.593

Calculating electrochemical heating
min,mean,max(electrochemicalHeating): 1.581028e-11  3.383946e+08  7.013076e+08

air species electrochemical fluxes and YEqn BCs
s species[] isFlux[] mflux[] = 0 O2 true -7.872147
s species[] isFlux[] mflux[] = 1 N2 false 0


air mass rates: 
   inlet: 2.637e-05   outlet: 2.11546e-05   cathode: 3.936074e-06
O2 mass rates: 
   inlet = 6.14421e-06   outlet = 1.857753e-06   chem = 3.936074e-06
      utilization by chemRate = 0.6406151
      utilization by outRate  = 0.6976417

fuel species electrochemical fluxes and YEqn BCs
s species[] isFlux[] mflux[] = 0 H2 true -0.9918982
s species[] isFlux[] mflux[] = 1 H2O true 8.864045


fuel mass rates: 
   inlet: 2.2875e-06   outlet: 6.480168e-06   anode: 3.936074e-06
H2 mass rates: 
   inlet = 1.788825e-06   outlet = 1.630673e-06   chem = 4.959491e-07
      utilization by chemRate = 0.2772485
      utilization by outRate  = 0.08841086


min mean max rhoCpF(air) = 289.3564 293.6899 346.6345
min mean max rhoCpF(fuel) = 280.386 340.845 386.8565

ELECTROLYTE FLUX MAPPING ACTIVATED
time step continuity errors : sum local = 0.1342403, global = -0.00562841

Solving energy
DILUPBiCG:  Solving for T, Initial residual = 0.09897637, Final residual = 7.264489e-11, No Iterations 609
T min mean max     = 1199.571    1442.835    1459.812

 sum TcellEqn.source() =   107.1634

ExecutionTime = 688.6 s


Time = 9

Tair min mean max  = 1199.571    1442.476    1459.81
Tfuel min mean max = 1343.564    1443.091    1459.809
min,mean,max(rhoAir): 0.2335081   0.2397075   0.293265
min,mean,max(rhoFuel): 0.0229429   0.04333281   0.05151977
min,mean,max(muAir): 4.873246e-05   5.362415e-05   5.419055e-05
min,mean,max(muFuel): 3.214187e-05   4.510715e-05   4.801396e-05
min,mean,max(nuAir): 0.0001661721   0.0002237888   0.0002277831
min,mean,max(nuFuel): 0.0009319521   0.001057888   0.001444267
min,mean,max(kAir): 0.08138905   0.09323438   0.09401224
min,mean,max(kFuel): 0.26105   0.2945128   0.4488733

Solving fuel flow
DILUPBiCG:  Solving for Ux, Initial residual = 4.39324e-05, Final residual = 2.804424e-10, No Iterations 3
DILUPBiCG:  Solving for Uy, Initial residual = 0.01841663, Final residual = 2.402686e-10, No Iterations 2
DILUPBiCG:  Solving for Uz, Initial residual = 0.02596692, Final residual = 4.704469e-10, No Iterations 2
DICPCG:  Solving for p, Initial residual = 0.004274704, Final residual = 9.925731e-10, No Iterations 355
time step continuity errors : sum local = 5.834269e-08, global = 5.014143e-10
DICPCG:  Solving for p, Initial residual = 0.003123238, Final residual = 9.90133e-10, No Iterations 311
time step continuity errors : sum local = 4.863166e-08, global = -3.283206e-10

Solving air flow
DILUPBiCG:  Solving for Ux, Initial residual = 6.667082e-06, Final residual = 5.421522e-10, No Iterations 3
DILUPBiCG:  Solving for Uy, Initial residual = 0.04645587, Final residual = 3.299343e-11, No Iterations 4
DILUPBiCG:  Solving for Uz, Initial residual = 0.08711507, Final residual = 7.967821e-11, No Iterations 4
DICPCG:  Solving for p, Initial residual = 0.01182238, Final residual = 9.553e-10, No Iterations 496
time step continuity errors : sum local = 1.853179e-07, global = 1.256666e-11
DICPCG:  Solving for p, Initial residual = 0.01248962, Final residual = 8.57981e-10, No Iterations 496
time step continuity errors : sum local = 1.766904e-07, global = 2.720723e-11
ReAir  = 11.88122
ReFuel = 1.600933

airSpecies O2

airDiffModels[0]
  zone size = 260000
diffusivityModels::binaryFSG:
    diffusing speciesA molWt diffVol: O2 31.9988 16.3
   background speciesB molWt diffVol: N2 28.0134 18.5

airDiffModels[1]
  zone size = 100000
diffusivityModels::fixedDiffusivity: 
   diff0 = diff0 [0 2 -1 0 0 0 0] 2.9864e-05

airDiffModels[2]
  zone size = 60000
diffusivityModels::fixedDiffusivity: 
   diff0 = diff0 [0 2 -1 0 0 0 0] 1.054e-05

diffSpAir[O2]
    primitiveFieldRef min mean max = 1.054e-05  0.0001388248  0.000332344

fuelSpecies H2

fuelDiffModels[0]
  zone size = 360000
diffusivityModels::binaryFSG:
    diffusing speciesA molWt diffVol: H2 2.01594 6.12
   background speciesB molWt diffVol: H2O 18.01534 13.1

fuelDiffModels[1]
  zone size = 200000
diffusivityModels::fixedDiffusivity: 
   diff0 = diff0 [0 2 -1 0 0 0 0] 0.00013124

fuelDiffModels[2]
  zone size = 60000
diffusivityModels::fixedDiffusivity: 
   diff0 = diff0 [0 2 -1 0 0 0 0] 4.6321e-05

diffSpFuel[H2]
    primitiveFieldRef() min mean max = 4.6321e-05  0.0004778723  0.001459681

Solving fuel scalars
 Yfuel[i].name() = YH2
DILUPBiCG:  Solving for YH2, Initial residual = 0.1592036, Final residual = 4.534159e-10, No Iterations 229
 Yfuel[i].name() = YH2O
inertIndex = 1
min,mean,max(YH2): 0.2302827 , 0.3531355 , 0.7420025
min,mean,max(YH2O): 0.2579975 , 0.6468645 , 0.7697173

Solving air scalars
 Yair[i].name() = YO2
DILUPBiCG:  Solving for YO2, Initial residual = 0.09220697, Final residual = 9.730081e-10, No Iterations 172
 Yair[i].name() = YN2
inertIndex = 1
min,mean,max(YO2): 0.001892566 , 0.1245432 , 0.2321591
min,mean,max(YN2): 0.7678409 , 0.8754568 , 0.9981074

Solving electrochemistry
min,max(anodeT): 1382.438 , 1459.811
min,max(cathodeT): 1382.387 , 1459.811
min,mean,max(XO2): 0.001320057 , 0.08788144 , 0.1776928
min,mean,max(XH2): 0.7277349 , 0.8039134 , 0.9120547
min,mean,max(XH2O): 0.08794534 , 0.1960866 , 0.2722651
min,mean,max Nernst = 0.7389702  0.877308  0.9705687
min,mean,max(i): 918.8798 , 5587.221 , 10859.55
min,mean,max(iNew): 1055.464 , 13099.32 , 19747.19
min,mean,max(iOld): 2.218364e-16 , 4752.543 , 9883.099
min,mean,max calBV(etaAn) = 0.000187284  0.001516091  0.005114702
min,mean,max calBV(etaCa) = 5.254214e-05  0.0003267352  0.0008676242

Solve current

layer 1

sumVolume8e-08
min,max(Nernst): 0.7389702 , 0.9705687
ibar0 = 5000    ibar = 5587.221    V = 0.7315921

stack Voltage =0.7315921
min,mean,max(current): 918.8798 , 5587.221 , 10859.55

Calculating electrochemical heating
min,mean,max(electrochemicalHeating): 6.485693e+07  3.941057e+08  7.64429e+08

air species electrochemical fluxes and YEqn BCs
s species[] isFlux[] mflux[] = 0 O2 true -9.264846
s species[] isFlux[] mflux[] = 1 N2 false 0


air mass rates: 
   inlet: 2.637e-05   outlet: 2.248223e-05   cathode: 4.632423e-06
O2 mass rates: 
   inlet = 6.14421e-06   outlet = 2.156857e-06   chem = 4.632423e-06
      utilization by chemRate = 0.7539494
      utilization by outRate  = 0.648961

fuel species electrochemical fluxes and YEqn BCs
s species[] isFlux[] mflux[] = 0 H2 true -1.16738
s species[] isFlux[] mflux[] = 1 H2O true 10.43223


fuel mass rates: 
   inlet: 2.2875e-06   outlet: 5.030253e-06   anode: 4.632423e-06
H2 mass rates: 
   inlet = 1.788825e-06   outlet = 1.244839e-06   chem = 5.836898e-07
      utilization by chemRate = 0.3262979
      utilization by outRate  = 0.3041026


min mean max rhoCpF(air) = 287.9037 293.4937 346.9294
min mean max rhoCpF(fuel) = 284.1038 306.3293 342.5757

ELECTROLYTE FLUX MAPPING ACTIVATED
time step continuity errors : sum local = 0.1272791, global = -0.004067831

Solving energy
DILUPBiCG:  Solving for T, Initial residual = 0.04851586, Final residual = 2.290501e-11, No Iterations 537
T min mean max     = 1215.301    1478.481    1497.479

 sum TcellEqn.source() =   110.0998

ExecutionTime = 762 s


Time = 10

Tair min mean max  = 1215.301    1478.079    1497.477
Tfuel min mean max = 1370.165    1478.746    1497.475
min,mean,max(rhoAir): 0.2286926   0.2345841   0.2894604
min,mean,max(rhoFuel): 0.0223137   0.04078073   0.05196393
min,mean,max(muAir): 4.914423e-05   5.465044e-05   5.509997e-05
min,mean,max(muFuel): 3.252457e-05   4.552612e-05   4.954201e-05
min,mean,max(nuAir): 0.0001697788   0.000233069   0.0002375462
min,mean,max(nuFuel): 0.0009533875   0.001140541   0.001509363
min,mean,max(kAir): 0.08223018   0.09506971   0.09585387
min,mean,max(kFuel): 0.2628085   0.3101342   0.4589382

Solving fuel flow
DILUPBiCG:  Solving for Ux, Initial residual = 4.770413e-05, Final residual = 2.889018e-10, No Iterations 2
DILUPBiCG:  Solving for Uy, Initial residual = 0.06678908, Final residual = 2.316414e-10, No Iterations 2
DILUPBiCG:  Solving for Uz, Initial residual = 0.0331386, Final residual = 5.918038e-10, No Iterations 2
DICPCG:  Solving for p, Initial residual = 0.003840174, Final residual = 9.939606e-10, No Iterations 407
time step continuity errors : sum local = 4.686707e-08, global = 8.215108e-11
DICPCG:  Solving for p, Initial residual = 0.001754347, Final residual = 7.973884e-10, No Iterations 310
time step continuity errors : sum local = 4.702287e-08, global = -2.499906e-10

Solving air flow
DILUPBiCG:  Solving for Ux, Initial residual = 1.098883e-05, Final residual = 7.013049e-10, No Iterations 3
DILUPBiCG:  Solving for Uy, Initial residual = 0.03798526, Final residual = 6.708014e-10, No Iterations 3
DILUPBiCG:  Solving for Uz, Initial residual = 0.06638488, Final residual = 6.865757e-10, No Iterations 3
DICPCG:  Solving for p, Initial residual = 0.01559102, Final residual = 9.001549e-10, No Iterations 502
time step continuity errors : sum local = 1.715196e-07, global = -2.709552e-11
DICPCG:  Solving for p, Initial residual = 0.009518974, Final residual = 8.554834e-10, No Iterations 499
time step continuity errors : sum local = 1.713531e-07, global = 1.674873e-10
ReAir  = 11.75308
ReFuel = 1.58126

airSpecies O2

airDiffModels[0]
  zone size = 260000
diffusivityModels::binaryFSG:
    diffusing speciesA molWt diffVol: O2 31.9988 16.3
   background speciesB molWt diffVol: N2 28.0134 18.5

airDiffModels[1]
  zone size = 100000
diffusivityModels::fixedDiffusivity: 
   diff0 = diff0 [0 2 -1 0 0 0 0] 2.9864e-05

airDiffModels[2]
  zone size = 60000
diffusivityModels::fixedDiffusivity: 
   diff0 = diff0 [0 2 -1 0 0 0 0] 1.054e-05

diffSpAir[O2]
    primitiveFieldRef min mean max = 1.054e-05  0.0001442637  0.0003474927

fuelSpecies H2

fuelDiffModels[0]
  zone size = 360000
diffusivityModels::binaryFSG:
    diffusing speciesA molWt diffVol: H2 2.01594 6.12
   background speciesB molWt diffVol: H2O 18.01534 13.1

fuelDiffModels[1]
  zone size = 200000
diffusivityModels::fixedDiffusivity: 
   diff0 = diff0 [0 2 -1 0 0 0 0] 0.00013124

fuelDiffModels[2]
  zone size = 60000
diffusivityModels::fixedDiffusivity: 
   diff0 = diff0 [0 2 -1 0 0 0 0] 4.6321e-05

diffSpFuel[H2]
    primitiveFieldRef() min mean max = 4.6321e-05  0.0004950809  0.001526129

Solving fuel scalars
 Yfuel[i].name() = YH2
DILUPBiCG:  Solving for YH2, Initial residual = 0.140614, Final residual = 7.143453e-10, No Iterations 346
 Yfuel[i].name() = YH2O
inertIndex = 1
min,mean,max(YH2): 0.09510958 , 0.2562739 , 0.7362593
min,mean,max(YH2O): 0.2637407 , 0.7437261 , 0.9048904

Solving air scalars
 Yair[i].name() = YO2
DILUPBiCG:  Solving for YO2, Initial residual = 0.06113543, Final residual = 1.918664e-10, No Iterations 159
 Yair[i].name() = YN2
inertIndex = 1
min,mean,max(YO2): 2.220446e-16 , 0.1079694 , 0.2320743
min,mean,max(YN2): 0.7679257 , 0.8920306 , 1

Solving electrochemistry
min,max(anodeT): 1412.343 , 1497.478
min,max(cathodeT): 1412.289 , 1497.478
min,mean,max(XO2): 2.220446e-16 , 0.06840271 , 0.174636
min,mean,max(XH2): 0.4841861 , 0.6827268 , 0.8931758
min,mean,max(XH2O): 0.1068242 , 0.3172732 , 0.5158139
min,mean,max Nernst = -0.2724953  0.7712623  0.953946
min,mean,max(i): 2.220446e-16 , 5500.23 , 11413.68
min,mean,max(iNew): -87462.12 , 3331.868 , 18512.52
min,mean,max(iOld): 902.524 , 5467.233 , 10624.92
min,mean,max calBV(etaAn) = -1.11e-30  0.001081847  0.004234822
min,mean,max calBV(etaCa) = -1.11e-30  0.0002524051  0.0007351395

Solve current

layer 1

sumVolume8e-08
min,max(Nernst): -0.2724953 , 0.953946
ibar0 = 5000    ibar = 5500.23    V = 0.7365944

stack Voltage =0.7365944
min,mean,max(current): 2.220446e-16 , 5500.23 , 11413.68

Calculating electrochemical heating
min,mean,max(electrochemicalHeating): 1.554589e-11  3.849714e+08  7.971775e+08

air species electrochemical fluxes and YEqn BCs
s species[] isFlux[] mflux[] = 0 O2 true -9.120596
s species[] isFlux[] mflux[] = 1 N2 false 0


air mass rates: 
   inlet: 2.637e-05   outlet: 2.247176e-05   cathode: 4.560298e-06
O2 mass rates: 
   inlet = 6.14421e-06   outlet = 1.737834e-06   chem = 4.560298e-06
      utilization by chemRate = 0.7422106
      utilization by outRate  = 0.717159

fuel species electrochemical fluxes and YEqn BCs
s species[] isFlux[] mflux[] = 0 H2 true -1.149204
s species[] isFlux[] mflux[] = 1 H2O true 10.2698


fuel mass rates: 
   inlet: 2.2875e-06   outlet: 5.775904e-06   anode: 4.560298e-06
H2 mass rates: 
   inlet = 1.788825e-06   outlet = 7.049826e-07   chem = 5.74602e-07
      utilization by chemRate = 0.3212175
      utilization by outRate  = 0.6058963


min mean max rhoCpF(air) = 283.9418 288.4269 343.1013
min mean max rhoCpF(fuel) = 201.7816 232.8195 285.3044

ELECTROLYTE FLUX MAPPING ACTIVATED
time step continuity errors : sum local = 0.1552163, global = -0.001747247

Solving energy
DILUPBiCG:  Solving for T, Initial residual = 0.04951566, Final residual = 8.992776e-11, No Iterations 522
T min mean max     = 1222.837    1490.105    1508.007

 sum TcellEqn.source() =   113.9201

ExecutionTime = 838.04 s


Time = 11

Tair min mean max  = 1222.837    1489.697    1508.005
Tfuel min mean max = 1382.042    1490.382    1508.003
min,mean,max(rhoAir): 0.2265055   0.2322676   0.2876417
min,mean,max(rhoFuel): 0.02228081   0.05400788   0.08334102
min,mean,max(muAir): 4.933926e-05   5.475518e-05   5.530984e-05
min,mean,max(muFuel): 3.291782e-05   4.863736e-05   5.378159e-05
min,mean,max(nuAir): 0.0001715303   0.0002358392   0.0002400409
min,mean,max(nuFuel): 0.0006452901   0.0009634358   0.001527209
min,mean,max(kAir): 0.08263095   0.09553018   0.09626861
min,mean,max(kFuel): 0.2080507   0.2720793   0.4597313

Solving fuel flow
DILUPBiCG:  Solving for Ux, Initial residual = 3.330774e-05, Final residual = 1.541425e-10, No Iterations 3
DILUPBiCG:  Solving for Uy, Initial residual = 0.06510427, Final residual = 1.868316e-10, No Iterations 2
DILUPBiCG:  Solving for Uz, Initial residual = 0.03493645, Final residual = 2.431962e-10, No Iterations 2
DICPCG:  Solving for p, Initial residual = 0.004045734, Final residual = 9.631331e-10, No Iterations 312
time step continuity errors : sum local = 7.499585e-08, global = 2.575755e-10
DICPCG:  Solving for p, Initial residual = 0.002046288, Final residual = 8.803626e-10, No Iterations 309
time step continuity errors : sum local = 8.161241e-08, global = 1.806228e-10

Solving air flow
DILUPBiCG:  Solving for Ux, Initial residual = 9.124851e-06, Final residual = 2.152728e-12, No Iterations 4
DILUPBiCG:  Solving for Uy, Initial residual = 0.04475313, Final residual = 3.082306e-10, No Iterations 3
DILUPBiCG:  Solving for Uz, Initial residual = 0.06121241, Final residual = 4.205367e-10, No Iterations 3
DICPCG:  Solving for p, Initial residual = 0.01177156, Final residual = 8.586489e-10, No Iterations 502
time step continuity errors : sum local = 1.696889e-07, global = 1.390832e-11
DICPCG:  Solving for p, Initial residual = 0.007342242, Final residual = 9.110395e-10, No Iterations 494
time step continuity errors : sum local = 1.679328e-07, global = -6.462299e-12
ReAir  = 11.69881
ReFuel = 1.561849

airSpecies O2

airDiffModels[0]
  zone size = 260000
diffusivityModels::binaryFSG:
    diffusing speciesA molWt diffVol: O2 31.9988 16.3
   background speciesB molWt diffVol: N2 28.0134 18.5

airDiffModels[1]
  zone size = 100000
diffusivityModels::fixedDiffusivity: 
   diff0 = diff0 [0 2 -1 0 0 0 0] 2.9864e-05

airDiffModels[2]
  zone size = 60000
diffusivityModels::fixedDiffusivity: 
   diff0 = diff0 [0 2 -1 0 0 0 0] 1.054e-05

diffSpAir[O2]
    primitiveFieldRef min mean max = 1.054e-05  0.0001460656  0.0003517851

fuelSpecies H2

fuelDiffModels[0]
  zone size = 360000
diffusivityModels::binaryFSG:
    diffusing speciesA molWt diffVol: H2 2.01594 6.12
   background speciesB molWt diffVol: H2O 18.01534 13.1

fuelDiffModels[1]
  zone size = 200000
diffusivityModels::fixedDiffusivity: 
   diff0 = diff0 [0 2 -1 0 0 0 0] 0.00013124

fuelDiffModels[2]
  zone size = 60000
diffusivityModels::fixedDiffusivity: 
   diff0 = diff0 [0 2 -1 0 0 0 0] 4.6321e-05

diffSpFuel[H2]
    primitiveFieldRef() min mean max = 4.6321e-05  0.0005008637  0.001545073

Solving fuel scalars
 Yfuel[i].name() = YH2
DILUPBiCG:  Solving for YH2, Initial residual = 0.1256469, Final residual = 9.495393e-10, No Iterations 232
 Yfuel[i].name() = YH2O
inertIndex = 1
min,mean,max(YH2): 0.07514127 , 0.204497 , 0.7258218
min,mean,max(YH2O): 0.2741782 , 0.795503 , 0.9248587

Solving air scalars
 Yair[i].name() = YO2
DILUPBiCG:  Solving for YO2, Initial residual = 0.03419139, Final residual = 8.536708e-10, No Iterations 167
 Yair[i].name() = YN2
inertIndex = 1
min,mean,max(YO2): 2.220446e-16 , 0.1049237 , 0.2319978
min,mean,max(YN2): 0.7680022 , 0.8950763 , 1

Solving electrochemistry
min,max(anodeT): 1424.267 , 1508.006
min,max(cathodeT): 1424.21 , 1508.006
min,mean,max(XO2): 2.220446e-16 , 0.06560696 , 0.1719827
min,mean,max(XH2): 0.4205136 , 0.6125066 , 0.8761043
min,mean,max(XH2O): 0.1238957 , 0.3874934 , 0.5794864
min,mean,max Nernst = -0.1479435  0.7896722  0.9403107
min,mean,max(i): 2.220446e-16 , 5355.019 , 11901.9
min,mean,max(iNew): -78020.72 , 4525.874 , 17213.6
min,mean,max(iOld): 2.197328e-16 , 5444.005 , 11311.71
min,mean,max calBV(etaAn) = -1.11e-30  0.0009090505  0.00389374
min,mean,max calBV(etaCa) = -1.11e-30  0.0002279356  0.0006703841

Solve current

layer 1

sumVolume8e-08
min,max(Nernst): -0.1479435 , 0.9403107
ibar0 = 5000    ibar = 5355.019    V = 0.7401446

stack Voltage =0.7401446
min,mean,max(current): 2.220446e-16 , 5355.019 , 11901.9

Calculating electrochemical heating
min,mean,max(electrochemicalHeating): 1.543043e-11  3.725681e+08  8.263499e+08

air species electrochemical fluxes and YEqn BCs
s species[] isFlux[] mflux[] = 0 O2 true -8.879804
s species[] isFlux[] mflux[] = 1 N2 false 0


air mass rates: 
   inlet: 2.637e-05   outlet: 2.22259e-05   cathode: 4.439902e-06
O2 mass rates: 
   inlet = 6.14421e-06   outlet = 1.688807e-06   chem = 4.439902e-06
      utilization by chemRate = 0.7226156
      utilization by outRate  = 0.7251385

fuel species electrochemical fluxes and YEqn BCs
s species[] isFlux[] mflux[] = 0 H2 true -1.118864
s species[] isFlux[] mflux[] = 1 H2O true 9.998668


fuel mass rates: 
   inlet: 2.2875e-06   outlet: 9.176476e-06   anode: 4.439902e-06
H2 mass rates: 
   inlet = 1.788825e-06   outlet = 8.226959e-07   chem = 5.59432e-07
      utilization by chemRate = 0.3127371
      utilization by outRate  = 0.5400914


min mean max rhoCpF(air) = 280.5432 285.8904 341.2636
min mean max rhoCpF(fuel) = 245.3858 264.7653 302.7081

ELECTROLYTE FLUX MAPPING ACTIVATED
time step continuity errors : sum local = 0.1960563, global = 0.0120933

Solving energy
DILUPBiCG:  Solving for T, Initial residual = 0.03069526, Final residual = 4.056564e-11, No Iterations 505
T min mean max     = 1223.615    1489.005    1505.573

 sum TcellEqn.source() =   130.2574

ExecutionTime = 912.78 s


Time = 12

Tair min mean max  = 1223.615    1488.607    1505.571
Tfuel min mean max = 1382.974    1489.283    1505.57
min,mean,max(rhoAir): 0.2272104   0.2323423   0.2874302
min,mean,max(rhoFuel): 0.02254728   0.0629352   0.09179993
min,mean,max(muAir): 4.935808e-05   5.470004e-05   5.525321e-05
min,mean,max(muFuel): 3.323324e-05   5.008427e-05   5.429757e-05
min,mean,max(nuAir): 0.000171722   0.0002355177   0.0002394021
min,mean,max(nuFuel): 0.0005914575   0.000856266   0.001517825
min,mean,max(kAir): 0.08267156   0.09546158   0.09615231
min,mean,max(kFuel): 0.1993729   0.2503506   0.4555168

Solving fuel flow
DILUPBiCG:  Solving for Ux, Initial residual = 1.536516e-05, Final residual = 8.952158e-11, No Iterations 3
DILUPBiCG:  Solving for Uy, Initial residual = 0.03764798, Final residual = 1.140281e-10, No Iterations 2
DILUPBiCG:  Solving for Uz, Initial residual = 0.04457567, Final residual = 7.78846e-10, No Iterations 2
DICPCG:  Solving for p, Initial residual = 0.002823052, Final residual = 9.755102e-10, No Iterations 310
time step continuity errors : sum local = 1.020522e-07, global = -4.431998e-10
DICPCG:  Solving for p, Initial residual = 0.002008371, Final residual = 8.98891e-10, No Iterations 309
time step continuity errors : sum local = 7.807823e-08, global = -2.107404e-13

Solving air flow
DILUPBiCG:  Solving for Ux, Initial residual = 4.720647e-06, Final residual = 2.871882e-10, No Iterations 3
DILUPBiCG:  Solving for Uy, Initial residual = 0.03757767, Final residual = 1.676121e-11, No Iterations 4
DILUPBiCG:  Solving for Uz, Initial residual = 0.04420623, Final residual = 3.977216e-10, No Iterations 3
DICPCG:  Solving for p, Initial residual = 0.01047048, Final residual = 9.204775e-10, No Iterations 502
time step continuity errors : sum local = 1.697753e-07, global = -1.990867e-11
DICPCG:  Solving for p, Initial residual = 0.00682686, Final residual = 8.553526e-10, No Iterations 495
time step continuity errors : sum local = 1.676338e-07, global = -1.327581e-11
ReAir  = 11.69584
ReFuel = 1.546296

airSpecies O2

airDiffModels[0]
  zone size = 260000
diffusivityModels::binaryFSG:
    diffusing speciesA molWt diffVol: O2 31.9988 16.3
   background speciesB molWt diffVol: N2 28.0134 18.5

airDiffModels[1]
  zone size = 100000
diffusivityModels::fixedDiffusivity: 
   diff0 = diff0 [0 2 -1 0 0 0 0] 2.9864e-05

airDiffModels[2]
  zone size = 60000
diffusivityModels::fixedDiffusivity: 
   diff0 = diff0 [0 2 -1 0 0 0 0] 1.054e-05

diffSpAir[O2]
    primitiveFieldRef min mean max = 1.054e-05  0.0001458999  0.0003507989

fuelSpecies H2

fuelDiffModels[0]
  zone size = 360000
diffusivityModels::binaryFSG:
    diffusing speciesA molWt diffVol: H2 2.01594 6.12
   background speciesB molWt diffVol: H2O 18.01534 13.1

fuelDiffModels[1]
  zone size = 200000
diffusivityModels::fixedDiffusivity: 
   diff0 = diff0 [0 2 -1 0 0 0 0] 0.00013124

fuelDiffModels[2]
  zone size = 60000
diffusivityModels::fixedDiffusivity: 
   diff0 = diff0 [0 2 -1 0 0 0 0] 4.6321e-05

diffSpFuel[H2]
    primitiveFieldRef() min mean max = 4.6321e-05  0.0005004697  0.001540864

Solving fuel scalars
 Yfuel[i].name() = YH2
DILUPBiCG:  Solving for YH2, Initial residual = 0.1779768, Final residual = 4.890762e-10, No Iterations 236
 Yfuel[i].name() = YH2O
inertIndex = 1
min,mean,max(YH2): 0.2052161 , 0.2932251 , 0.7303933
min,mean,max(YH2O): 0.2696067 , 0.7067749 , 0.7947839

Solving air scalars
 Yair[i].name() = YO2
DILUPBiCG:  Solving for YO2, Initial residual = 0.01995792, Final residual = 4.630294e-10, No Iterations 159
 Yair[i].name() = YN2
inertIndex = 1
min,mean,max(YO2): 0.02150602 , 0.1041456 , 0.2320302
min,mean,max(YN2): 0.7679698 , 0.8958544 , 0.978494

Solving electrochemistry
min,max(anodeT): 1424.645 , 1505.572
min,max(cathodeT): 1424.588 , 1505.572
min,mean,max(XO2): 0.01864571 , 0.06519466 , 0.1709368
min,mean,max(XH2): 0.697625 , 0.7593849 , 0.8984202
min,mean,max(XH2O): 0.1015798 , 0.2406151 , 0.302375
min,mean,max Nernst = 0.7934714  0.8363033  0.9495637
min,mean,max(i): 557.7545 , 5643.926 , 12478.32
min,mean,max(iNew): 4574.988 , 8265.891 , 17746.14
min,mean,max(iOld): 2.21716e-16 , 5352.597 , 11893.01
min,mean,max calBV(etaAn) = 8.370463e-05  0.00109136  0.004267862
min,mean,max calBV(etaCa) = 2.36964e-05  0.0002443958  0.0007015507

Solve current

layer 1

sumVolume8e-08
min,max(Nernst): 0.7934714 , 0.9495637
ibar0 = 5000    ibar = 5643.926    V = 0.7465839

stack Voltage =0.7465839
min,mean,max(current): 557.7545 , 5643.926 , 12478.32

Calculating electrochemical heating
min,mean,max(electrochemicalHeating): 3.838083e+07  3.881183e+08  8.56339e+08

air species electrochemical fluxes and YEqn BCs
s species[] isFlux[] mflux[] = 0 O2 true -9.358876
s species[] isFlux[] mflux[] = 1 N2 false 0


air mass rates: 
   inlet: 2.637e-05   outlet: 2.203794e-05   cathode: 4.679438e-06
O2 mass rates: 
   inlet = 6.14421e-06   outlet = 1.724623e-06   chem = 4.679438e-06
      utilization by chemRate = 0.7616012
      utilization by outRate  = 0.7193093

fuel species electrochemical fluxes and YEqn BCs
s species[] isFlux[] mflux[] = 0 H2 true -1.179227
s species[] isFlux[] mflux[] = 1 H2O true 10.5381


fuel mass rates: 
   inlet: 2.2875e-06   outlet: 9.2941e-06   anode: 4.679438e-06
H2 mass rates: 
   inlet = 1.788825e-06   outlet = 1.969511e-06   chem = 5.896137e-07
      utilization by chemRate = 0.3296095
      utilization by outRate  = -0.1010082


min mean max rhoCpF(air) = 281.5458 285.9825 341.0428
min mean max rhoCpF(fuel) = 277.1284 390.1372 492.7488

ELECTROLYTE FLUX MAPPING ACTIVATED
time step continuity errors : sum local = 0.1777612, global = 0.006889188

Solving energy
DILUPBiCG:  Solving for T, Initial residual = 0.021159, Final residual = 9.413803e-11, No Iterations 634
T min mean max     = 1226.694    1495.772    1512.931

 sum TcellEqn.source() =   140.0911

ExecutionTime = 995.83 s


Time = 13

Tair min mean max  = 1226.694    1495.382    1512.93
Tfuel min mean max = 1387.014    1496.042    1512.928
min,mean,max(rhoAir): 0.2265787   0.2312685   0.2867004
min,mean,max(rhoFuel): 0.02232541   0.04604921   0.05535294
min,mean,max(muAir): 4.943891e-05   5.484911e-05   5.538476e-05
min,mean,max(muFuel): 3.317519e-05   4.772457e-05   5.075082e-05
min,mean,max(nuAir): 0.000172441   0.0002372576   0.0002413244
min,mean,max(nuFuel): 0.0009167794   0.001058859   0.001534253
min,mean,max(kAir): 0.08283575   0.09577905   0.0964908
min,mean,max(kFuel): 0.2551747   0.2886612   0.4588412

Solving fuel flow
DILUPBiCG:  Solving for Ux, Initial residual = 3.80346e-05, Final residual = 2.302207e-10, No Iterations 3
DILUPBiCG:  Solving for Uy, Initial residual = 0.04058951, Final residual = 1.981267e-10, No Iterations 2
DILUPBiCG:  Solving for Uz, Initial residual = 0.02808194, Final residual = 4.975813e-10, No Iterations 2
DICPCG:  Solving for p, Initial residual = 0.004838097, Final residual = 7.872357e-10, No Iterations 311
time step continuity errors : sum local = 4.854867e-08, global = -1.577501e-10
DICPCG:  Solving for p, Initial residual = 0.003540918, Final residual = 8.148633e-10, No Iterations 310
time step continuity errors : sum local = 4.144035e-08, global = -1.373518e-10

Solving air flow
DILUPBiCG:  Solving for Ux, Initial residual = 8.447329e-06, Final residual = 1.194057e-10, No Iterations 3
DILUPBiCG:  Solving for Uy, Initial residual = 0.03805162, Final residual = 8.739574e-12, No Iterations 4
DILUPBiCG:  Solving for Uz, Initial residual = 0.02659151, Final residual = 3.561062e-10, No Iterations 3
DICPCG:  Solving for p, Initial residual = 0.008658129, Final residual = 9.384561e-10, No Iterations 427
time step continuity errors : sum local = 1.565263e-07, global = -1.241059e-10
DICPCG:  Solving for p, Initial residual = 0.00484322, Final residual = 9.673113e-10, No Iterations 413
time step continuity errors : sum local = 1.562209e-07, global = -3.692947e-10
ReAir  = 11.67197
ReFuel = 1.54932

airSpecies O2

airDiffModels[0]
  zone size = 260000
diffusivityModels::binaryFSG:
    diffusing speciesA molWt diffVol: O2 31.9988 16.3
   background speciesB molWt diffVol: N2 28.0134 18.5

airDiffModels[1]
  zone size = 100000
diffusivityModels::fixedDiffusivity: 
   diff0 = diff0 [0 2 -1 0 0 0 0] 2.9864e-05

airDiffModels[2]
  zone size = 60000
diffusivityModels::fixedDiffusivity: 
   diff0 = diff0 [0 2 -1 0 0 0 0] 1.054e-05

diffSpAir[O2]
    primitiveFieldRef min mean max = 1.054e-05  0.0001469505  0.0003538033

fuelSpecies H2

fuelDiffModels[0]
  zone size = 360000
diffusivityModels::binaryFSG:
    diffusing speciesA molWt diffVol: H2 2.01594 6.12
   background speciesB molWt diffVol: H2O 18.01534 13.1

fuelDiffModels[1]
  zone size = 200000
diffusivityModels::fixedDiffusivity: 
   diff0 = diff0 [0 2 -1 0 0 0 0] 0.00013124

fuelDiffModels[2]
  zone size = 60000
diffusivityModels::fixedDiffusivity: 
   diff0 = diff0 [0 2 -1 0 0 0 0] 4.6321e-05

[...]
inertIndex = 1
min,mean,max(YO2): 0.01387471 , 0.109816 , 0.231995
min,mean,max(YN2): 0.768005 , 0.890184 , 0.9861253

Solving electrochemistry
min,max(anodeT): 1352.853 , 1418.09
min,max(cathodeT): 1352.806 , 1418.09
min,mean,max(XO2): 0.01170338 , 0.07149595 , 0.1710461
min,mean,max(XH2): 0.6700858 , 0.7520576 , 0.8909094
min,mean,max(XH2O): 0.1090906 , 0.2479424 , 0.3299142
min,mean,max Nernst = 0.8162311  0.8635943  0.9663229
min,mean,max(i): 1178.668 , 5000.001 , 12121.06
min,mean,max(iNew): 1178.661 , 4999.996 , 12121
min,mean,max(iOld): 1178.669 , 5000.001 , 12121.07
min,mean,max calBV(etaAn) = 0.0002859615  0.001614226  0.006585033
min,mean,max calBV(etaCa) = 0.0001005561  0.0004196195  0.001273

Solve current

layer 1

sumVolume8e-08
min,max(Nernst): 0.8162311 , 0.9663229
ibar0 = 5000    ibar = 5000.001    V = 0.8021455

stack Voltage =0.8021455
min,mean,max(current): 1178.668 , 5000.001 , 12121.06

Calculating electrochemical heating
min,mean,max(electrochemicalHeating): 7.268033e+07  3.081012e+08  7.453713e+08

air species electrochemical fluxes and YEqn BCs
s species[] isFlux[] mflux[] = 0 O2 true -8.291105
s species[] isFlux[] mflux[] = 1 N2 false 0


air mass rates: 
   inlet: 2.637e-05   outlet: 2.222659e-05   cathode: 4.145553e-06
O2 mass rates: 
   inlet = 6.14421e-06   outlet = 1.998849e-06   chem = 4.145553e-06
      utilization by chemRate = 0.6747088
      utilization by outRate  = 0.6746776

fuel species electrochemical fluxes and YEqn BCs
s species[] isFlux[] mflux[] = 0 H2 true -1.044687
s species[] isFlux[] mflux[] = 1 H2O true 9.335793


fuel mass rates: 
   inlet: 2.2875e-06   outlet: 6.430496e-06   anode: 4.145553e-06
H2 mass rates: 
   inlet = 1.788825e-06   outlet = 1.265978e-06   chem = 5.223437e-07
      utilization by chemRate = 0.2920038
      utilization by outRate  = 0.2922854


min mean max rhoCpF(air) = 297.4655 300.9624 350.9165
min mean max rhoCpF(fuel) = 287.2108 306.1649 315.8313

ELECTROLYTE FLUX MAPPING ACTIVATED
time step continuity errors : sum local = 0.1467452, global = -1.859024e-08

Solving energy
DILUPBiCG:  Solving for T, Initial residual = 3.128382e-06, Final residual = 6.484697e-11, No Iterations 453
T min mean max     = 1183.135    1405.065    1418.091

 sum TcellEqn.source() =   106.7679

ExecutionTime = 6977.81 s


Time = 118

Tair min mean max  = 1183.135    1404.71    1418.089
Tfuel min mean max = 1316.051    1405.288    1418.088
min,mean,max(rhoAir): 0.2417795   0.2463531   0.2972441
min,mean,max(rhoFuel): 0.02361992   0.04962991   0.06283325
min,mean,max(muAir): 4.829598e-05   5.277309e-05   5.328759e-05
min,mean,max(muFuel): 3.174861e-05   4.511926e-05   4.833712e-05
min,mean,max(nuAir): 0.0001624792   0.0002142769   0.0002172804
min,mean,max(nuFuel): 0.0007690983   0.0009355633   0.001379899
min,mean,max(kAir): 0.08050383   0.09139663   0.09198085
min,mean,max(kFuel): 0.2302087   0.2707997   0.4386766

Solving fuel flow
DILUPBiCG:  Solving for Ux, Initial residual = 7.147204e-11, Final residual = 5.641239e-12, No Iterations 1
DILUPBiCG:  Solving for Uy, Initial residual = 5.4625e-08, Final residual = 3.257494e-10, No Iterations 1
DILUPBiCG:  Solving for Uz, Initial residual = 4.868254e-08, Final residual = 6.398681e-10, No Iterations 1
DICPCG:  Solving for p, Initial residual = 4.750807e-08, Final residual = 9.323019e-10, No Iterations 57
time step continuity errors : sum local = 5.289715e-08, global = 7.639495e-09
DICPCG:  Solving for p, Initial residual = 3.282074e-08, Final residual = 8.989479e-10, No Iterations 9
time step continuity errors : sum local = 4.99321e-08, global = 2.811031e-08

Solving air flow
DILUPBiCG:  Solving for Ux, Initial residual = 3.616445e-10, Final residual = 1.96856e-12, No Iterations 2
DILUPBiCG:  Solving for Uy, Initial residual = 6.465588e-08, Final residual = 5.510556e-10, No Iterations 1
DILUPBiCG:  Solving for Uz, Initial residual = 9.179455e-08, Final residual = 6.699304e-11, No Iterations 2
DICPCG:  Solving for p, Initial residual = 7.950775e-06, Final residual = 4.619021e-10, No Iterations 173
time step continuity errors : sum local = 9.566711e-08, global = 2.414518e-10
DICPCG:  Solving for p, Initial residual = 4.728783e-06, Final residual = 6.228185e-10, No Iterations 172
time step continuity errors : sum local = 9.527819e-08, global = 2.959924e-10
ReAir  = 12.01781
ReFuel = 1.62107

airSpecies O2

airDiffModels[0]
  zone size = 260000
diffusivityModels::binaryFSG:
    diffusing speciesA molWt diffVol: O2 31.9988 16.3
   background speciesB molWt diffVol: N2 28.0134 18.5

airDiffModels[1]
  zone size = 100000
diffusivityModels::fixedDiffusivity: 
   diff0 = diff0 [0 2 -1 0 0 0 0] 2.9864e-05

airDiffModels[2]
  zone size = 60000
diffusivityModels::fixedDiffusivity: 
   diff0 = diff0 [0 2 -1 0 0 0 0] 1.054e-05

diffSpAir[O2]
    primitiveFieldRef min mean max = 1.054e-05  0.0001331821  0.0003159256

fuelSpecies H2

fuelDiffModels[0]
  zone size = 360000
diffusivityModels::binaryFSG:
    diffusing speciesA molWt diffVol: H2 2.01594 6.12
   background speciesB molWt diffVol: H2O 18.01534 13.1

fuelDiffModels[1]
  zone size = 200000
diffusivityModels::fixedDiffusivity: 
   diff0 = diff0 [0 2 -1 0 0 0 0] 0.00013124

fuelDiffModels[2]
  zone size = 60000
diffusivityModels::fixedDiffusivity: 
   diff0 = diff0 [0 2 -1 0 0 0 0] 4.6321e-05

diffSpFuel[H2]
    primitiveFieldRef() min mean max = 4.6321e-05  0.0004598601  0.001387845

Solving fuel scalars
 Yfuel[i].name() = YH2
DILUPBiCG:  Solving for YH2, Initial residual = 2.65448e-07, Final residual = 8.571557e-10, No Iterations 122
 Yfuel[i].name() = YH2O
inertIndex = 1
min,mean,max(YH2): 0.1852206 , 0.2915108 , 0.7317159
min,mean,max(YH2O): 0.2682841 , 0.7084892 , 0.8147794

Solving air scalars
 Yair[i].name() = YO2
DILUPBiCG:  Solving for YO2, Initial residual = 1.460587e-06, Final residual = 5.8568e-10, No Iterations 102
 Yair[i].name() = YN2
inertIndex = 1
min,mean,max(YO2): 0.01387472 , 0.109816 , 0.231995
min,mean,max(YN2): 0.768005 , 0.890184 , 0.9861253

Solving electrochemistry
min,max(anodeT): 1352.853 , 1418.09
min,max(cathodeT): 1352.806 , 1418.09
min,mean,max(XO2): 0.01170339 , 0.07149596 , 0.1710462
min,mean,max(XH2): 0.6700857 , 0.7520575 , 0.8909094
min,mean,max(XH2O): 0.1090906 , 0.2479425 , 0.3299143
min,mean,max Nernst = 0.8162311  0.8635943  0.9663229
min,mean,max(i): 1178.667 , 5000 , 12121.06
min,mean,max(iNew): 1178.659 , 4999.994 , 12121.01
min,mean,max(iOld): 1178.668 , 5000.001 , 12121.06
min,mean,max calBV(etaAn) = 0.0002859613  0.001614226  0.006585031
min,mean,max calBV(etaCa) = 0.0001005561  0.0004196195  0.001273

Solve current

layer 1

sumVolume8e-08
min,max(Nernst): 0.8162311 , 0.9663229
ibar0 = 5000    ibar = 5000    V = 0.8021455

stack Voltage =0.8021455
min,mean,max(current): 1178.667 , 5000 , 12121.06

Calculating electrochemical heating
min,mean,max(electrochemicalHeating): 7.268028e+07  3.081011e+08  7.45371e+08

air species electrochemical fluxes and YEqn BCs
s species[] isFlux[] mflux[] = 0 O2 true -8.291104
s species[] isFlux[] mflux[] = 1 N2 false 0


air mass rates: 
   inlet: 2.637e-05   outlet: 2.222659e-05   cathode: 4.145552e-06
O2 mass rates: 
   inlet = 6.14421e-06   outlet = 1.99885e-06   chem = 4.145552e-06
      utilization by chemRate = 0.6747087
      utilization by outRate  = 0.6746775

fuel species electrochemical fluxes and YEqn BCs
s species[] isFlux[] mflux[] = 0 H2 true -1.044687
s species[] isFlux[] mflux[] = 1 H2O true 9.335791


fuel mass rates: 
   inlet: 2.2875e-06   outlet: 6.430506e-06   anode: 4.145552e-06
H2 mass rates: 
   inlet = 1.788825e-06   outlet = 1.265979e-06   chem = 5.223436e-07
      utilization by chemRate = 0.2920037
      utilization by outRate  = 0.2922847


min mean max rhoCpF(air) = 297.4655 300.9624 350.9166
min mean max rhoCpF(fuel) = 287.2108 306.1651 315.8316

ELECTROLYTE FLUX MAPPING ACTIVATED
time step continuity errors : sum local = 0.1467453, global = 2.901018e-08

Solving energy
DILUPBiCG:  Solving for T, Initial residual = 1.894638e-06, Final residual = 3.623421e-11, No Iterations 449
T min mean max     = 1183.135    1405.065    1418.091

 sum TcellEqn.source() =   106.768

ExecutionTime = 7027.09 s


Time = 119

Tair min mean max  = 1183.135    1404.71    1418.089
Tfuel min mean max = 1316.051    1405.288    1418.088
min,mean,max(rhoAir): 0.2417796   0.2463531   0.2972441
min,mean,max(rhoFuel): 0.02361992   0.04962992   0.06283328
min,mean,max(muAir): 4.829599e-05   5.277309e-05   5.328759e-05
min,mean,max(muFuel): 3.174861e-05   4.511926e-05   4.833712e-05
min,mean,max(nuAir): 0.0001624792   0.0002142769   0.0002172804
min,mean,max(nuFuel): 0.000769098   0.0009355631   0.001379899
min,mean,max(kAir): 0.08050383   0.09139663   0.09198085
min,mean,max(kFuel): 0.2302086   0.2707996   0.4386766

Solving fuel flow
DILUPBiCG:  Solving for Ux, Initial residual = 8.224383e-11, Final residual = 6.141522e-12, No Iterations 1
DILUPBiCG:  Solving for Uy, Initial residual = 1.039819e-07, Final residual = 2.358482e-10, No Iterations 1
DILUPBiCG:  Solving for Uz, Initial residual = 1.077869e-07, Final residual = 2.277221e-14, No Iterations 2
DICPCG:  Solving for p, Initial residual = 3.16275e-08, Final residual = 8.254125e-10, No Iterations 144
time step continuity errors : sum local = 4.839553e-08, global = 1.992585e-09
DICPCG:  Solving for p, Initial residual = 2.093511e-08, Final residual = 9.854477e-10, No Iterations 140
time step continuity errors : sum local = 5.72409e-08, global = 1.409063e-09

Solving air flow
DILUPBiCG:  Solving for Ux, Initial residual = 1.443296e-10, Final residual = 1.634631e-11, No Iterations 1
DILUPBiCG:  Solving for Uy, Initial residual = 5.221923e-08, Final residual = 6.653827e-10, No Iterations 1
DILUPBiCG:  Solving for Uz, Initial residual = 7.468677e-08, Final residual = 3.25898e-11, No Iterations 2
DICPCG:  Solving for p, Initial residual = 1.949103e-05, Final residual = 6.140854e-10, No Iterations 174
time step continuity errors : sum local = 1.06793e-07, global = 3.630502e-10
DICPCG:  Solving for p, Initial residual = 1.124131e-05, Final residual = 8.085988e-10, No Iterations 173
time step continuity errors : sum local = 1.057331e-07, global = 4.800838e-10
ReAir  = 12.01781
ReFuel = 1.62107

airSpecies O2

airDiffModels[0]
  zone size = 260000
diffusivityModels::binaryFSG:
    diffusing speciesA molWt diffVol: O2 31.9988 16.3
   background speciesB molWt diffVol: N2 28.0134 18.5

airDiffModels[1]
  zone size = 100000
diffusivityModels::fixedDiffusivity: 
   diff0 = diff0 [0 2 -1 0 0 0 0] 2.9864e-05

airDiffModels[2]
  zone size = 60000
diffusivityModels::fixedDiffusivity: 
   diff0 = diff0 [0 2 -1 0 0 0 0] 1.054e-05

diffSpAir[O2]
    primitiveFieldRef min mean max = 1.054e-05  0.0001331821  0.0003159256

fuelSpecies H2

fuelDiffModels[0]
  zone size = 360000
diffusivityModels::binaryFSG:
    diffusing speciesA molWt diffVol: H2 2.01594 6.12
   background speciesB molWt diffVol: H2O 18.01534 13.1

fuelDiffModels[1]
  zone size = 200000
diffusivityModels::fixedDiffusivity: 
   diff0 = diff0 [0 2 -1 0 0 0 0] 0.00013124

fuelDiffModels[2]
  zone size = 60000
diffusivityModels::fixedDiffusivity: 
   diff0 = diff0 [0 2 -1 0 0 0 0] 4.6321e-05

diffSpFuel[H2]
    primitiveFieldRef() min mean max = 4.6321e-05  0.0004598601  0.001387845

Solving fuel scalars
 Yfuel[i].name() = YH2
DILUPBiCG:  Solving for YH2, Initial residual = 3.917648e-07, Final residual = 8.906533e-10, No Iterations 126
 Yfuel[i].name() = YH2O
inertIndex = 1
min,mean,max(YH2): 0.1852209 , 0.2915111 , 0.7317159
min,mean,max(YH2O): 0.2682841 , 0.7084889 , 0.8147791

Solving air scalars
 Yair[i].name() = YO2
DILUPBiCG:  Solving for YO2, Initial residual = 1.112721e-06, Final residual = 4.741321e-10, No Iterations 106
 Yair[i].name() = YN2
inertIndex = 1
min,mean,max(YO2): 0.01387473 , 0.109816 , 0.231995
min,mean,max(YN2): 0.768005 , 0.890184 , 0.9861253

Solving electrochemistry
min,max(anodeT): 1352.853 , 1418.09
min,max(cathodeT): 1352.806 , 1418.09
min,mean,max(XO2): 0.0117034 , 0.07149598 , 0.1710462
min,mean,max(XH2): 0.6700862 , 0.7520578 , 0.8909094
min,mean,max(XH2O): 0.1090906 , 0.2479422 , 0.3299138
min,mean,max Nernst = 0.8162313  0.8635944  0.9663229
min,mean,max(i): 1178.668 , 5000 , 12121.05
min,mean,max(iNew): 1178.676 , 5000.003 , 12121.01
min,mean,max(iOld): 1178.667 , 5000 , 12121.06
min,mean,max calBV(etaAn) = 0.0002859618  0.001614227  0.006585031
min,mean,max calBV(etaCa) = 0.0001005562  0.0004196197  0.001272999

Solve current

layer 1

sumVolume8e-08
min,max(Nernst): 0.8162313 , 0.9663229
ibar0 = 5000    ibar = 5000    V = 0.8021455

stack Voltage =0.8021455
min,mean,max(current): 1178.668 , 5000 , 12121.05

Calculating electrochemical heating
min,mean,max(electrochemicalHeating): 7.268033e+07  3.081012e+08  7.453707e+08

air species electrochemical fluxes and YEqn BCs
s species[] isFlux[] mflux[] = 0 O2 true -8.291105
s species[] isFlux[] mflux[] = 1 N2 false 0


air mass rates: 
   inlet: 2.637e-05   outlet: 2.222659e-05   cathode: 4.145552e-06
O2 mass rates: 
   inlet = 6.14421e-06   outlet = 1.99885e-06   chem = 4.145552e-06
      utilization by chemRate = 0.6747088
      utilization by outRate  = 0.6746775

fuel species electrochemical fluxes and YEqn BCs
s species[] isFlux[] mflux[] = 0 H2 true -1.044687
s species[] isFlux[] mflux[] = 1 H2O true 9.335792


fuel mass rates: 
   inlet: 2.2875e-06   outlet: 6.430507e-06   anode: 4.145552e-06
H2 mass rates: 
   inlet = 1.788825e-06   outlet = 1.265981e-06   chem = 5.223436e-07
      utilization by chemRate = 0.2920038
      utilization by outRate  = 0.2922834


min mean max rhoCpF(air) = 297.4655 300.9624 350.9166
min mean max rhoCpF(fuel) = 287.2108 306.1653 315.832

ELECTROLYTE FLUX MAPPING ACTIVATED
time step continuity errors : sum local = 0.1467452, global = 6.333683e-09

Solving energy
DILUPBiCG:  Solving for T, Initial residual = 1.423458e-06, Final residual = 5.565945e-11, No Iterations 442
T min mean max     = 1183.135    1405.065    1418.091

 sum TcellEqn.source() =   106.7679

ExecutionTime = 7076.01 s


Time = 120

Tair min mean max  = 1183.135    1404.71    1418.089
Tfuel min mean max = 1316.051    1405.288    1418.088
min,mean,max(rhoAir): 0.2417796   0.2463531   0.2972441
min,mean,max(rhoFuel): 0.02361992   0.04962989   0.06283321
min,mean,max(muAir): 4.829599e-05   5.277309e-05   5.328759e-05
min,mean,max(muFuel): 3.174861e-05   4.511925e-05   4.833711e-05
min,mean,max(nuAir): 0.0001624792   0.0002142769   0.0002172804
min,mean,max(nuFuel): 0.0007690987   0.0009355635   0.001379899
min,mean,max(kAir): 0.08050384   0.09139663   0.09198085
min,mean,max(kFuel): 0.2302088   0.2707997   0.4386766

Solving fuel flow
DILUPBiCG:  Solving for Ux, Initial residual = 5.908337e-11, Final residual = 4.442295e-12, No Iterations 1
DILUPBiCG:  Solving for Uy, Initial residual = 6.113418e-08, Final residual = 9.292769e-11, No Iterations 1
DILUPBiCG:  Solving for Uz, Initial residual = 4.94604e-08, Final residual = 5.199271e-10, No Iterations 1
DICPCG:  Solving for p, Initial residual = 2.339572e-08, Final residual = 9.96492e-10, No Iterations 114
time step continuity errors : sum local = 5.698852e-08, global = -1.432143e-09
DICPCG:  Solving for p, Initial residual = 1.587231e-08, Final residual = 8.539991e-10, No Iterations 126
time step continuity errors : sum local = 4.962124e-08, global = -2.691358e-09

Solving air flow
DILUPBiCG:  Solving for Ux, Initial residual = 3.868112e-10, Final residual = 4.357298e-11, No Iterations 1
DILUPBiCG:  Solving for Uy, Initial residual = 4.130693e-08, Final residual = 8.300656e-10, No Iterations 1
DILUPBiCG:  Solving for Uz, Initial residual = 6.28206e-08, Final residual = 6.906969e-11, No Iterations 2
DICPCG:  Solving for p, Initial residual = 2.625953e-05, Final residual = 8.265713e-10, No Iterations 174
time step continuity errors : sum local = 1.022051e-07, global = -3.942971e-10
DICPCG:  Solving for p, Initial residual = 1.485812e-05, Final residual = 4.916105e-10, No Iterations 174
time step continuity errors : sum local = 9.626331e-08, global = -3.012919e-10
ReAir  = 12.01781
ReFuel = 1.62107

airSpecies O2

airDiffModels[0]
  zone size = 260000
diffusivityModels::binaryFSG:
    diffusing speciesA molWt diffVol: O2 31.9988 16.3
   background speciesB molWt diffVol: N2 28.0134 18.5

airDiffModels[1]
  zone size = 100000
diffusivityModels::fixedDiffusivity: 
   diff0 = diff0 [0 2 -1 0 0 0 0] 2.9864e-05

airDiffModels[2]
  zone size = 60000
diffusivityModels::fixedDiffusivity: 
   diff0 = diff0 [0 2 -1 0 0 0 0] 1.054e-05

diffSpAir[O2]
    primitiveFieldRef min mean max = 1.054e-05  0.0001331821  0.0003159256

fuelSpecies H2

fuelDiffModels[0]
  zone size = 360000
diffusivityModels::binaryFSG:
    diffusing speciesA molWt diffVol: H2 2.01594 6.12
   background speciesB molWt diffVol: H2O 18.01534 13.1

fuelDiffModels[1]
  zone size = 200000
diffusivityModels::fixedDiffusivity: 
   diff0 = diff0 [0 2 -1 0 0 0 0] 0.00013124

fuelDiffModels[2]
  zone size = 60000
diffusivityModels::fixedDiffusivity: 
   diff0 = diff0 [0 2 -1 0 0 0 0] 4.6321e-05

diffSpFuel[H2]
    primitiveFieldRef() min mean max = 4.6321e-05  0.0004598601  0.001387845

Solving fuel scalars
 Yfuel[i].name() = YH2
DILUPBiCG:  Solving for YH2, Initial residual = 2.817374e-07, Final residual = 9.284981e-10, No Iterations 129
 Yfuel[i].name() = YH2O
inertIndex = 1
min,mean,max(YH2): 0.1852209 , 0.2915111 , 0.7317159
min,mean,max(YH2O): 0.2682841 , 0.7084889 , 0.8147791

Solving air scalars
 Yair[i].name() = YO2
DILUPBiCG:  Solving for YO2, Initial residual = 2.447906e-06, Final residual = 4.651407e-10, No Iterations 99
 Yair[i].name() = YN2
inertIndex = 1
min,mean,max(YO2): 0.01387471 , 0.109816 , 0.231995
min,mean,max(YN2): 0.768005 , 0.890184 , 0.9861253

Solving electrochemistry
min,max(anodeT): 1352.853 , 1418.09
min,max(cathodeT): 1352.806 , 1418.09
min,mean,max(XO2): 0.01170338 , 0.07149597 , 0.1710462
min,mean,max(XH2): 0.6700862 , 0.7520578 , 0.8909095
min,mean,max(XH2O): 0.1090905 , 0.2479422 , 0.3299138
min,mean,max Nernst = 0.8162313  0.8635944  0.966323
min,mean,max(i): 1178.669 , 5000.001 , 12121.05
min,mean,max(iNew): 1178.674 , 5000.003 , 12121.01
min,mean,max(iOld): 1178.668 , 5000 , 12121.05
min,mean,max calBV(etaAn) = 0.000285962  0.001614227  0.006585029
min,mean,max calBV(etaCa) = 0.0001005562  0.0004196197  0.001272999

Solve current

layer 1

sumVolume8e-08
min,max(Nernst): 0.8162313 , 0.966323
ibar0 = 5000    ibar = 5000.001    V = 0.8021455

stack Voltage =0.8021455
min,mean,max(current): 1178.669 , 5000.001 , 12121.05

Calculating electrochemical heating
min,mean,max(electrochemicalHeating): 7.268037e+07  3.081012e+08  7.453704e+08

air species electrochemical fluxes and YEqn BCs
s species[] isFlux[] mflux[] = 0 O2 true -8.291105
s species[] isFlux[] mflux[] = 1 N2 false 0


air mass rates: 
   inlet: 2.637e-05   outlet: 2.222659e-05   cathode: 4.145553e-06
O2 mass rates: 
   inlet = 6.14421e-06   outlet = 1.99885e-06   chem = 4.145553e-06
      utilization by chemRate = 0.6747088
      utilization by outRate  = 0.6746775

fuel species electrochemical fluxes and YEqn BCs
s species[] isFlux[] mflux[] = 0 H2 true -1.044687
s species[] isFlux[] mflux[] = 1 H2O true 9.335793


fuel mass rates: 
   inlet: 2.2875e-06   outlet: 6.430499e-06   anode: 4.145553e-06
H2 mass rates: 
   inlet = 1.788825e-06   outlet = 1.26598e-06   chem = 5.223437e-07
      utilization by chemRate = 0.2920038
      utilization by outRate  = 0.2922842


min mean max rhoCpF(air) = 297.4655 300.9625 350.9165
min mean max rhoCpF(fuel) = 287.2108 306.1651 315.8317

ELECTROLYTE FLUX MAPPING ACTIVATED
time step continuity errors : sum local = 0.1467452, global = -2.216008e-08

Solving energy
DILUPBiCG:  Solving for T, Initial residual = 3.117868e-06, Final residual = 7.536519e-11, No Iterations 456
T min mean max     = 1183.135    1405.065    1418.091

 sum TcellEqn.source() =   106.7679

ExecutionTime = 7131.78 s


End

